

        *** GPGPU-Sim Simulator Version 3.2.2  [build 17315] ***


GPGPU-Sim PTX: simulation mode 0 (can change with PTX_SIM_MODE_FUNC environment variable:
               1=functional simulation only, 0=detailed performance simulator)
GPGPU-Sim: Configuration options:

-network_mode                           1 # Interconnection network mode
-inter_config_file   config_fermi_islip.icnt # Interconnection network config file
-gpgpu_ptx_use_cuobjdump                    1 # Use cuobjdump to extract ptx and sass from binaries
-gpgpu_experimental_lib_support                    0 # Try to extract code from cuda libraries [Broken because of unknown cudaGetExportTable]
-gpgpu_ptx_convert_to_ptxplus                    0 # Convert SASS (native ISA) to ptxplus and run ptxplus
-gpgpu_ptx_force_max_capability                   20 # Force maximum compute capability
-gpgpu_ptx_inst_debug_to_file                    0 # Dump executed instructions' debug information to file
-gpgpu_ptx_inst_debug_file       inst_debug.txt # Executed instructions' debug output file
-gpgpu_ptx_inst_debug_thread_uid                    1 # Thread UID for executed instructions' debug output
-gpgpu_simd_model                       1 # 1 = post-dominator
-gpgpu_shader_core_pipeline              1536:32 # shader core pipeline config, i.e., {<nthread>:<warpsize>}
-gpgpu_tex_cache:l1  4:128:24,L:R:m:N,F:128:4,128:2 # per-shader L1 texture cache  (READ-ONLY) config  {<nsets>:<bsize>:<assoc>,<rep>:<wr>:<alloc>:<wr_alloc>,<mshr>:<N>:<merge>,<mq>:<rf>}
-gpgpu_const_cache:l1 64:64:2,L:R:f:N,A:2:32,4 # per-shader L1 constant memory cache  (READ-ONLY) config  {<nsets>:<bsize>:<assoc>,<rep>:<wr>:<alloc>:<wr_alloc>,<mshr>:<N>:<merge>,<mq>} 
-gpgpu_cache:il1     4:128:4,L:R:f:N,A:2:32,4 # shader L1 instruction cache config  {<nsets>:<bsize>:<assoc>,<rep>:<wr>:<alloc>:<wr_alloc>,<mshr>:<N>:<merge>,<mq>} 
-gpgpu_cache:dl1     32:128:4,L:L:m:N,A:32:8,8 # per-shader L1 data cache config  {<nsets>:<bsize>:<assoc>,<rep>:<wr>:<alloc>:<wr_alloc>,<mshr>:<N>:<merge>,<mq> | none}
-gpgpu_cache:dl1PrefL1                 none # per-shader L1 data cache config  {<nsets>:<bsize>:<assoc>,<rep>:<wr>:<alloc>:<wr_alloc>,<mshr>:<N>:<merge>,<mq> | none}
-gpgpu_cache:dl1PreShared                 none # per-shader L1 data cache config  {<nsets>:<bsize>:<assoc>,<rep>:<wr>:<alloc>:<wr_alloc>,<mshr>:<N>:<merge>,<mq> | none}
-gmem_skip_L1D                          0 # global memory access skip L1D cache (implements -Xptxas -dlcm=cg, default=no skip)
-gpgpu_perfect_mem                      0 # enable perfect memory mode (no cache miss)
-n_regfile_gating_group                    4 # group of lanes that should be read/written together)
-gpgpu_clock_gated_reg_file                    0 # enable clock gated reg file for power calculations
-gpgpu_clock_gated_lanes                    0 # enable clock gated lanes for power calculations
-gpgpu_shader_registers                32768 # Number of registers per shader core. Limits number of concurrent CTAs. (default 8192)
-gpgpu_shader_cta                       8 # Maximum number of concurrent CTAs in shader (default 8)
-gpgpu_n_clusters                      15 # number of processing clusters
-gpgpu_n_cores_per_cluster                    1 # number of simd cores per cluster
-gpgpu_n_cluster_ejection_buffer_size                    8 # number of packets in ejection buffer
-gpgpu_n_ldst_response_buffer_size                    2 # number of response packets in ld/st unit ejection buffer
-gpgpu_shmem_size                   16384 # Size of shared memory per shader core (default 16kB)
-gpgpu_shmem_size                   49152 # Size of shared memory per shader core (default 16kB)
-gpgpu_shmem_size_PrefL1                16384 # Size of shared memory per shader core (default 16kB)
-gpgpu_shmem_size_PrefShared                16384 # Size of shared memory per shader core (default 16kB)
-gpgpu_shmem_num_banks                   32 # Number of banks in the shared memory in each shader core (default 16)
-gpgpu_shmem_limited_broadcast                    0 # Limit shared memory to do one broadcast per cycle (default on)
-gpgpu_shmem_warp_parts                    1 # Number of portions a warp is divided into for shared memory bank conflict check 
-gpgpu_warpdistro_shader                   -1 # Specify which shader core to collect the warp size distribution from
-gpgpu_warp_issue_shader                    0 # Specify which shader core to collect the warp issue distribution from
-gpgpu_local_mem_map                    1 # Mapping from local memory space address to simulated GPU physical address space (default = enabled)
-gpgpu_num_reg_banks                   16 # Number of register banks (default = 8)
-gpgpu_reg_bank_use_warp_id                    0 # Use warp ID in mapping registers to banks (default = off)
-gpgpu_operand_collector_num_units_sp                    6 # number of collector units (default = 4)
-gpgpu_operand_collector_num_units_sfu                    8 # number of collector units (default = 4)
-gpgpu_operand_collector_num_units_mem                    2 # number of collector units (default = 2)
-gpgpu_operand_collector_num_units_gen                    0 # number of collector units (default = 0)
-gpgpu_operand_collector_num_in_ports_sp                    2 # number of collector unit in ports (default = 1)
-gpgpu_operand_collector_num_in_ports_sfu                    1 # number of collector unit in ports (default = 1)
-gpgpu_operand_collector_num_in_ports_mem                    1 # number of collector unit in ports (default = 1)
-gpgpu_operand_collector_num_in_ports_gen                    0 # number of collector unit in ports (default = 0)
-gpgpu_operand_collector_num_out_ports_sp                    2 # number of collector unit in ports (default = 1)
-gpgpu_operand_collector_num_out_ports_sfu                    1 # number of collector unit in ports (default = 1)
-gpgpu_operand_collector_num_out_ports_mem                    1 # number of collector unit in ports (default = 1)
-gpgpu_operand_collector_num_out_ports_gen                    0 # number of collector unit in ports (default = 0)
-gpgpu_coalesce_arch                   13 # Coalescing arch (default = 13, anything else is off for now)
-gpgpu_num_sched_per_core                    2 # Number of warp schedulers per core
-gpgpu_max_insn_issue_per_warp                    1 # Max number of instructions that can be issued per warp in one cycle by scheduler
-gpgpu_simt_core_sim_order                    1 # Select the simulation order of cores in a cluster (0=Fix, 1=Round-Robin)
-gpgpu_pipeline_widths        2,1,1,2,1,1,2 # Pipeline widths ID_OC_SP,ID_OC_SFU,ID_OC_MEM,OC_EX_SP,OC_EX_SFU,OC_EX_MEM,EX_WB
-gpgpu_num_sp_units                     2 # Number of SP units (default=1)
-gpgpu_num_sfu_units                    1 # Number of SF units (default=1)
-gpgpu_num_mem_units                    1 # Number if ldst units (default=1) WARNING: not hooked up to anything
-gpgpu_scheduler                      gto # Scheduler configuration: < lrr | gto | two_level_active > If two_level_active:<num_active_warps>:<inner_prioritization>:<outer_prioritization>For complete list of prioritization values see shader.h enum scheduler_prioritization_typeDefault: gto
-gpgpu_dram_scheduler                    1 # 0 = fifo, 1 = FR-FCFS (defaul)
-gpgpu_dram_partition_queues              8:8:8:8 # i2$:$2d:d2$:$2i
-l2_ideal                               0 # Use a ideal L2 cache that always hit
-gpgpu_cache:dl2     64:128:8,L:B:m:W,A:32:4,4:0,32 # unified banked L2 data cache config  {<nsets>:<bsize>:<assoc>,<rep>:<wr>:<alloc>:<wr_alloc>,<mshr>:<N>:<merge>,<mq>}
-gpgpu_cache:dl2_texture_only                    0 # L2 cache used for texture only
-gpgpu_n_mem                            6 # number of memory modules (e.g. memory controllers) in gpu
-gpgpu_n_sub_partition_per_mchannel                    2 # number of memory subpartition in each memory module
-gpgpu_n_mem_per_ctrlr                    2 # number of memory chips per memory controller
-gpgpu_memlatency_stat                   14 # track and display latency statistics 0x2 enables MC, 0x4 enables queue logs
-gpgpu_frfcfs_dram_sched_queue_size                   16 # 0 = unlimited (default); # entries per chip
-gpgpu_dram_return_queue_size                  116 # 0 = unlimited (default); # entries per chip
-gpgpu_dram_buswidth                    4 # default = 4 bytes (8 bytes per cycle at DDR)
-gpgpu_dram_burst_length                    8 # Burst length of each DRAM request (default = 4 data bus cycle)
-dram_data_command_freq_ratio                    4 # Frequency ratio between DRAM data bus and command bus (default = 2 times, i.e. DDR)
-gpgpu_dram_timing_opt nbk=16:CCD=2:RRD=6:RCD=12:RAS=28:RP=12:RC=40: CL=12:WL=4:CDLR=5:WR=12:nbkgrp=4:CCDL=3:RTPL=2 # DRAM timing parameters = {nbk:tCCD:tRRD:tRCD:tRAS:tRP:tRC:CL:WL:tCDLR:tWR:nbkgrp:tCCDL:tRTPL}
-rop_latency                          120 # ROP queue latency (default 85)
-dram_latency                         100 # DRAM latency (default 30)
-gpgpu_mem_addr_mapping dramid@8;00000000.00000000.00000000.00000000.0000RRRR.RRRRRRRR.BBBCCCCB.CCSSSSSS # mapping memory address to dram model {dramid@<start bit>;<memory address map>}
-gpgpu_mem_addr_test                    0 # run sweep test to check address mapping for aliased address
-gpgpu_mem_address_mask                    1 # 0 = old addressing mask, 1 = new addressing mask, 2 = new add. mask + flipped bank sel and chip sel bits
-gpuwattch_xml_file         gpuwattch.xml # GPUWattch XML file
-power_simulation_enabled                    0 # Turn on power simulator (1=On, 0=Off)
-power_per_cycle_dump                    0 # Dump detailed power output each cycle
-power_trace_enabled                    0 # produce a file for the power trace (1=On, 0=Off)
-power_trace_zlevel                     6 # Compression level of the power trace output log (0=no comp, 9=highest)
-steady_power_levels_enabled                    0 # produce a file for the steady power levels (1=On, 0=Off)
-steady_state_definition                  8:4 # allowed deviation:number of samples
-gpgpu_max_cycle                        0 # terminates gpu simulation early (0 = no limit)
-gpgpu_max_insn                         0 # terminates gpu simulation early (0 = no limit)
-gpgpu_max_cta                          0 # terminates gpu simulation early (0 = no limit)
-gpgpu_runtime_stat                   500 # display runtime statistics such as dram utilization {<freq>:<flag>}
-liveness_message_freq                    1 # Minimum number of seconds between simulation liveness messages (0 = always print)
-gpgpu_flush_l1_cache                    0 # Flush L1 cache at the end of each kernel call
-gpgpu_flush_l2_cache                    0 # Flush L2 cache at the end of each kernel call
-gpgpu_deadlock_detect                    1 # Stop the simulation at deadlock (1=on (default), 0=off)
-gpgpu_ptx_instruction_classification                    0 # if enabled will classify ptx instruction types per kernel (Max 255 kernels now)
-gpgpu_ptx_sim_mode                     0 # Select between Performance (default) or Functional simulation (1)
-gpgpu_clock_domains 700.0:700.0:700.0:924.0 # Clock Domain Frequencies in MhZ {<Core Clock>:<ICNT Clock>:<L2 Clock>:<DRAM Clock>}
-gpgpu_max_concurrent_kernel                    8 # maximum kernels that can run concurrently on GPU
-gpgpu_cflog_interval                    0 # Interval between each snapshot in control flow logger
-visualizer_enabled                     0 # Turn on visualizer output (1=On, 0=Off)
-visualizer_outputfile                 NULL # Specifies the output log file for visualizer
-visualizer_zlevel                      6 # Compression level of the visualizer output log (0=no comp, 9=highest)
-trace_enabled                          0 # Turn on traces
-trace_components                    none # comma seperated list of traces to enable. Complete list found in trace_streams.tup. Default none
-trace_sampling_core                    0 # The core which is printed using CORE_DPRINTF. Default 0
-trace_sampling_memory_partition                   -1 # The memory partition which is printed using MEMPART_DPRINTF. Default -1 (i.e. all)
-enable_ptx_file_line_stats                    1 # Turn on PTX source line statistic profiling. (1 = On)
-ptx_line_stats_filename gpgpu_inst_stats.txt # Output file for PTX source line statistics.
-save_embedded_ptx                      0 # saves ptx files embedded in binary as <n>.ptx
-keep                                   0 # keep intermediate files created by GPGPU-Sim when interfacing with external programs
-gpgpu_ptx_save_converted_ptxplus                    0 # Saved converted ptxplus to a file
-ptx_opcode_latency_int         4,13,4,5,145 # Opcode latencies for integers <ADD,MAX,MUL,MAD,DIV>Default 1,1,19,25,145
-ptx_opcode_latency_fp          4,13,4,5,39 # Opcode latencies for single precision floating points <ADD,MAX,MUL,MAD,DIV>Default 1,1,1,1,30
-ptx_opcode_latency_dp         8,19,8,8,330 # Opcode latencies for double precision floating points <ADD,MAX,MUL,MAD,DIV>Default 8,8,8,8,335
-ptx_opcode_initiation_int            1,2,2,1,8 # Opcode initiation intervals for integers <ADD,MAX,MUL,MAD,DIV>Default 1,1,4,4,32
-ptx_opcode_initiation_fp            1,2,1,1,4 # Opcode initiation intervals for single precision floating points <ADD,MAX,MUL,MAD,DIV>Default 1,1,1,1,5
-ptx_opcode_initiation_dp         8,16,8,8,130 # Opcode initiation intervals for double precision floating points <ADD,MAX,MUL,MAD,DIV>Default 8,8,8,8,130
DRAM Timing Options:
nbk                                    16 # number of banks
CCD                                     2 # column to column delay
RRD                                     6 # minimal delay between activation of rows in different banks
RCD                                    12 # row to column delay
RAS                                    28 # time needed to activate row
RP                                     12 # time needed to precharge (deactivate) row
RC                                     40 # row cycle time
CDLR                                    5 # switching from write to read (changes tWTR)
WR                                     12 # last data-in to row precharge
CL                                     12 # CAS latency
WL                                      4 # Write latency
nbkgrp                                  4 # number of bank groups
CCDL                                    3 # column to column delay between accesses to different bank groups
RTPL                                    2 # read to precharge delay between accesses to different bank groups
Total number of memory sub partition = 12
addr_dec_mask[CHIP]  = 0000000000000000 	high:64 low:0
addr_dec_mask[BK]    = 000000000000e100 	high:16 low:8
addr_dec_mask[ROW]   = 000000000fff0000 	high:28 low:16
addr_dec_mask[COL]   = 0000000000001eff 	high:13 low:0
addr_dec_mask[BURST] = 000000000000003f 	high:6 low:0
sub_partition_id_mask = 0000000000000100
GPGPU-Sim uArch: clock freqs: 700000000.000000:700000000.000000:700000000.000000:924000000.000000
GPGPU-Sim uArch: clock periods: 0.00000000142857142857:0.00000000142857142857:0.00000000142857142857:0.00000000108225108225
*** Initializing Memory Statistics ***
GPGPU-Sim uArch: interconnect node map (shaderID+MemID to icntID)
GPGPU-Sim uArch: Memory nodes ID start from index: 15
GPGPU-Sim uArch:    0   1   2   3   4
GPGPU-Sim uArch:    5   6   7   8   9
GPGPU-Sim uArch:   10  11  12  13  14
GPGPU-Sim uArch:   15  16  17  18  19
GPGPU-Sim uArch:   20  21  22  23  24
GPGPU-Sim uArch:   25  26
GPGPU-Sim uArch: interconnect node reverse map (icntID to shaderID+MemID)
GPGPU-Sim uArch: Memory nodes start from ID: 15
GPGPU-Sim uArch:    0   1   2   3   4
GPGPU-Sim uArch:    5   6   7   8   9
GPGPU-Sim uArch:   10  11  12  13  14
GPGPU-Sim uArch:   15  16  17  18  19
GPGPU-Sim uArch:   20  21  22  23  24
GPGPU-Sim uArch:   25  26
35e4989e7e2383a1c0ff536b7ce586fc  /afs/tu-berlin.de/home/t/tobias.fuchs/irb-ubuntu/Dokumente/new4/MCS1415/CUDA/assignment1/gpumcs/gpu_out
GPGPU-Sim uArch: performance model initialization complete.
GPGPU-Sim PTX: __cudaRegisterFatBinary, fat_cubin_handle = 1, filename=gpu_julia.cu
self exe links to: /afs/tu-berlin.de/home/t/tobias.fuchs/irb-ubuntu/Dokumente/new4/MCS1415/CUDA/assignment1/gpumcs/gpu_out
Running md5sum using "md5sum /afs/tu-berlin.de/home/t/tobias.fuchs/irb-ubuntu/Dokumente/new4/MCS1415/CUDA/assignment1/gpumcs/gpu_out "
Running cuobjdump using "$CUDA_INSTALL_PATH/bin/cuobjdump -ptx -elf -sass /afs/tu-berlin.de/home/t/tobias.fuchs/irb-ubuntu/Dokumente/new4/MCS1415/CUDA/assignment1/gpumcs/gpu_out > _cuobjdump_complete_output_S33YFK"
Parsing file _cuobjdump_complete_output_S33YFK
######### cuobjdump parser ########
## Adding new section ELF
Adding arch: sm_10
Adding identifier: gpu_julia.cu
## Adding new section PTX
Adding ptx filename: _cuobjdump_1.ptx
Adding arch: sm_10
Adding identifier: gpu_julia.cu
Done parsing!!!
GPGPU-Sim PTX: __cudaRegisterFunction _Z12calc_fractaliiffPh : hostFun 0x0x401073, fat_cubin_handle = 1
GPGPU-Sim PTX: instruction assembly for function '_Z12calc_fractaliiffPh'...   done.
GPGPU-Sim PTX: finding reconvergence points for '_Z12calc_fractaliiffPh'...
GPGPU-Sim PTX: Finding dominators for '_Z12calc_fractaliiffPh'...
GPGPU-Sim PTX: Finding immediate dominators for '_Z12calc_fractaliiffPh'...
GPGPU-Sim PTX: Finding postdominators for '_Z12calc_fractaliiffPh'...
GPGPU-Sim PTX: Finding immediate postdominators for '_Z12calc_fractaliiffPh'...
GPGPU-Sim PTX: pre-decoding instructions for '_Z12calc_fractaliiffPh'...
GPGPU-Sim PTX: reconvergence points for _Z12calc_fractaliiffPh...
GPGPU-Sim PTX:  1 (potential) branch divergence @  PC=0x100 (_1.ptx:101) @%p1 bra $Lt_0_258;
GPGPU-Sim PTX:    immediate post dominator      @  PC=0x158 (_1.ptx:117) ld.param.s32 %r4, [__cudaparm__Z12calc_fractaliiffPh_width];
GPGPU-Sim PTX:  2 (potential) branch divergence @  PC=0x150 (_1.ptx:114) @%p2 bra $Lt_0_2306;
GPGPU-Sim PTX:    immediate post dominator      @  PC=0x158 (_1.ptx:117) ld.param.s32 %r4, [__cudaparm__Z12calc_fractaliiffPh_width];
GPGPU-Sim PTX: ... end of reconvergence points for _Z12calc_fractaliiffPh
GPGPU-Sim PTX: ... done pre-decoding instructions for '_Z12calc_fractaliiffPh'.
GPGPU-Sim PTX: finished parsing EMBEDDED .ptx file _1.ptx
Adding _cuobjdump_1.ptx with cubin handle 1
GPGPU-Sim PTX: extracting embedded .ptx to temporary file "_ptx_wqOWQG"
Running: cat _ptx_wqOWQG | sed 's/.version 1.5/.version 1.4/' | sed 's/, texmode_independent//' | sed 's/\(\.extern \.const\[1\] .b8 \w\+\)\[\]/\1\[1\]/' | sed 's/const\[.\]/const\[0\]/g' > _ptx2_atmA2C
GPGPU-Sim PTX: generating ptxinfo using "$CUDA_INSTALL_PATH/bin/ptxas --gpu-name=sm_20 -v _ptx2_atmA2C --output-file  /dev/null 2> _ptx_wqOWQGinfo"
GPGPU-Sim PTX: Kernel '_Z12calc_fractaliiffPh' : regs=9, lmem=0, smem=0, cmem=60
GPGPU-Sim PTX: removing ptxinfo using "rm -f _ptx_wqOWQG _ptx2_atmA2C _ptx_wqOWQGinfo"
GPGPU-Sim PTX: loading globals with explicit initializers... 
GPGPU-Sim PTX: finished loading globals (0 bytes total).
GPGPU-Sim PTX: loading constants with explicit initializers...  done.

GPGPU-Sim PTX: cudaLaunch for 0x0x401073 (mode=performance simulation) on stream 0
GPGPU-Sim PTX: pushing kernel '_Z12calc_fractaliiffPh' to stream 0, gridDim= (256,2,1) blockDim = (1,128,1) 
kernel '_Z12calc_fractaliiffPh' transfer to GPU hardware scheduler
GPGPU-Sim uArch: Shader 1 bind to kernel 1 '_Z12calc_fractaliiffPh'
GPGPU-Sim uArch: CTA/core = 8, limited by: cta_limit
GPGPU-Sim uArch: core:  1, cta: 0 initialized @(1,0)
GPGPU-Sim uArch: Shader 2 bind to kernel 1 '_Z12calc_fractaliiffPh'
GPGPU-Sim uArch: core:  2, cta: 0 initialized @(1,0)
GPGPU-Sim uArch: Shader 3 bind to kernel 1 '_Z12calc_fractaliiffPh'
GPGPU-Sim uArch: core:  3, cta: 0 initialized @(1,0)
GPGPU-Sim uArch: Shader 4 bind to kernel 1 '_Z12calc_fractaliiffPh'
GPGPU-Sim uArch: core:  4, cta: 0 initialized @(1,0)
GPGPU-Sim uArch: Shader 5 bind to kernel 1 '_Z12calc_fractaliiffPh'
GPGPU-Sim uArch: core:  5, cta: 0 initialized @(1,0)
GPGPU-Sim uArch: Shader 6 bind to kernel 1 '_Z12calc_fractaliiffPh'
GPGPU-Sim uArch: core:  6, cta: 0 initialized @(1,0)
GPGPU-Sim uArch: Shader 7 bind to kernel 1 '_Z12calc_fractaliiffPh'
GPGPU-Sim uArch: core:  7, cta: 0 initialized @(1,0)
GPGPU-Sim uArch: Shader 8 bind to kernel 1 '_Z12calc_fractaliiffPh'
GPGPU-Sim uArch: core:  8, cta: 0 initialized @(1,0)
GPGPU-Sim uArch: Shader 9 bind to kernel 1 '_Z12calc_fractaliiffPh'
GPGPU-Sim uArch: core:  9, cta: 0 initialized @(1,0)
GPGPU-Sim uArch: Shader 10 bind to kernel 1 '_Z12calc_fractaliiffPh'
GPGPU-Sim uArch: core: 10, cta: 0 initialized @(1,0)
GPGPU-Sim uArch: Shader 11 bind to kernel 1 '_Z12calc_fractaliiffPh'
GPGPU-Sim uArch: core: 11, cta: 0 initialized @(1,0)
GPGPU-Sim uArch: Shader 12 bind to kernel 1 '_Z12calc_fractaliiffPh'
GPGPU-Sim uArch: core: 12, cta: 0 initialized @(1,0)
GPGPU-Sim uArch: Shader 13 bind to kernel 1 '_Z12calc_fractaliiffPh'
GPGPU-Sim uArch: core: 13, cta: 0 initialized @(1,0)
GPGPU-Sim uArch: Shader 14 bind to kernel 1 '_Z12calc_fractaliiffPh'
GPGPU-Sim uArch: core: 14, cta: 0 initialized @(1,0)
GPGPU-Sim uArch: Shader 0 bind to kernel 1 '_Z12calc_fractaliiffPh'
GPGPU-Sim uArch: core:  0, cta: 0 initialized @(1,0)
GPGPU-Sim uArch: core:  1, cta: 1 initialized @(2,0)
GPGPU-Sim uArch: core:  2, cta: 1 initialized @(2,0)
GPGPU-Sim uArch: core:  3, cta: 1 initialized @(2,0)
GPGPU-Sim uArch: core:  4, cta: 1 initialized @(2,0)
GPGPU-Sim uArch: core:  5, cta: 1 initialized @(2,0)
GPGPU-Sim uArch: core:  6, cta: 1 initialized @(2,0)
GPGPU-Sim uArch: core:  7, cta: 1 initialized @(2,0)
GPGPU-Sim uArch: core:  8, cta: 1 initialized @(2,0)
GPGPU-Sim uArch: core:  9, cta: 1 initialized @(2,0)
GPGPU-Sim uArch: core: 10, cta: 1 initialized @(2,0)
GPGPU-Sim uArch: core: 11, cta: 1 initialized @(2,0)
GPGPU-Sim uArch: core: 12, cta: 1 initialized @(2,0)
GPGPU-Sim uArch: core: 13, cta: 1 initialized @(2,0)
GPGPU-Sim uArch: core: 14, cta: 1 initialized @(2,0)
GPGPU-Sim uArch: core:  0, cta: 1 initialized @(2,0)
GPGPU-Sim uArch: core:  1, cta: 2 initialized @(3,0)
GPGPU-Sim uArch: core:  2, cta: 2 initialized @(3,0)
GPGPU-Sim uArch: core:  3, cta: 2 initialized @(3,0)
GPGPU-Sim uArch: core:  4, cta: 2 initialized @(3,0)
GPGPU-Sim uArch: core:  5, cta: 2 initialized @(3,0)
GPGPU-Sim uArch: core:  6, cta: 2 initialized @(3,0)
GPGPU-Sim uArch: core:  7, cta: 2 initialized @(3,0)
GPGPU-Sim uArch: core:  8, cta: 2 initialized @(3,0)
GPGPU-Sim uArch: core:  9, cta: 2 initialized @(3,0)
GPGPU-Sim uArch: core: 10, cta: 2 initialized @(3,0)
GPGPU-Sim uArch: core: 11, cta: 2 initialized @(3,0)
GPGPU-Sim uArch: core: 12, cta: 2 initialized @(3,0)
GPGPU-Sim uArch: core: 13, cta: 2 initialized @(3,0)
GPGPU-Sim uArch: core: 14, cta: 2 initialized @(3,0)
GPGPU-Sim uArch: core:  0, cta: 2 initialized @(3,0)
GPGPU-Sim uArch: core:  1, cta: 3 initialized @(4,0)
GPGPU-Sim uArch: core:  2, cta: 3 initialized @(4,0)
GPGPU-Sim uArch: core:  3, cta: 3 initialized @(4,0)
GPGPU-Sim uArch: core:  4, cta: 3 initialized @(4,0)
GPGPU-Sim uArch: core:  5, cta: 3 initialized @(4,0)
GPGPU-Sim uArch: core:  6, cta: 3 initialized @(4,0)
GPGPU-Sim uArch: core:  7, cta: 3 initialized @(4,0)
GPGPU-Sim uArch: core:  8, cta: 3 initialized @(4,0)
GPGPU-Sim uArch: core:  9, cta: 3 initialized @(4,0)
GPGPU-Sim uArch: core: 10, cta: 3 initialized @(4,0)
GPGPU-Sim uArch: core: 11, cta: 3 initialized @(4,0)
GPGPU-Sim uArch: core: 12, cta: 3 initialized @(4,0)
GPGPU-Sim uArch: core: 13, cta: 3 initialized @(4,0)
GPGPU-Sim uArch: core: 14, cta: 3 initialized @(4,0)
GPGPU-Sim uArch: core:  0, cta: 3 initialized @(4,0)
GPGPU-Sim uArch: core:  1, cta: 4 initialized @(5,0)
GPGPU-Sim uArch: core:  2, cta: 4 initialized @(5,0)
GPGPU-Sim uArch: core:  3, cta: 4 initialized @(5,0)
GPGPU-Sim uArch: core:  4, cta: 4 initialized @(5,0)
GPGPU-Sim uArch: core:  5, cta: 4 initialized @(5,0)
GPGPU-Sim uArch: core:  6, cta: 4 initialized @(5,0)
GPGPU-Sim uArch: core:  7, cta: 4 initialized @(5,0)
GPGPU-Sim uArch: core:  8, cta: 4 initialized @(5,0)
GPGPU-Sim uArch: core:  9, cta: 4 initialized @(5,0)
GPGPU-Sim uArch: core: 10, cta: 4 initialized @(5,0)
GPGPU-Sim uArch: core: 11, cta: 4 initialized @(5,0)
GPGPU-Sim uArch: core: 12, cta: 4 initialized @(5,0)
GPGPU-Sim uArch: core: 13, cta: 4 initialized @(5,0)
GPGPU-Sim uArch: core: 14, cta: 4 initialized @(5,0)
GPGPU-Sim uArch: core:  0, cta: 4 initialized @(5,0)
GPGPU-Sim uArch: core:  1, cta: 5 initialized @(6,0)
GPGPU-Sim uArch: core:  2, cta: 5 initialized @(6,0)
GPGPU-Sim uArch: core:  3, cta: 5 initialized @(6,0)
GPGPU-Sim uArch: core:  4, cta: 5 initialized @(6,0)
GPGPU-Sim uArch: core:  5, cta: 5 initialized @(6,0)
GPGPU-Sim uArch: core:  6, cta: 5 initialized @(6,0)
GPGPU-Sim uArch: core:  7, cta: 5 initialized @(6,0)
GPGPU-Sim uArch: core:  8, cta: 5 initialized @(6,0)
GPGPU-Sim uArch: core:  9, cta: 5 initialized @(6,0)
GPGPU-Sim uArch: core: 10, cta: 5 initialized @(6,0)
GPGPU-Sim uArch: core: 11, cta: 5 initialized @(6,0)
GPGPU-Sim uArch: core: 12, cta: 5 initialized @(6,0)
GPGPU-Sim uArch: core: 13, cta: 5 initialized @(6,0)
GPGPU-Sim uArch: core: 14, cta: 5 initialized @(6,0)
GPGPU-Sim uArch: core:  0, cta: 5 initialized @(6,0)
GPGPU-Sim uArch: core:  1, cta: 6 initialized @(7,0)
GPGPU-Sim uArch: core:  2, cta: 6 initialized @(7,0)
GPGPU-Sim uArch: core:  3, cta: 6 initialized @(7,0)
GPGPU-Sim uArch: core:  4, cta: 6 initialized @(7,0)
GPGPU-Sim uArch: core:  5, cta: 6 initialized @(7,0)
GPGPU-Sim uArch: core:  6, cta: 6 initialized @(7,0)
GPGPU-Sim uArch: core:  7, cta: 6 initialized @(7,0)
GPGPU-Sim uArch: core:  8, cta: 6 initialized @(7,0)
GPGPU-Sim uArch: core:  9, cta: 6 initialized @(7,0)
GPGPU-Sim uArch: core: 10, cta: 6 initialized @(7,0)
GPGPU-Sim uArch: core: 11, cta: 6 initialized @(7,0)
GPGPU-Sim uArch: core: 12, cta: 6 initialized @(7,0)
GPGPU-Sim uArch: core: 13, cta: 6 initialized @(7,0)
GPGPU-Sim uArch: core: 14, cta: 6 initialized @(7,0)
GPGPU-Sim uArch: core:  0, cta: 6 initialized @(7,0)
GPGPU-Sim uArch: core:  1, cta: 7 initialized @(8,0)
GPGPU-Sim uArch: core:  2, cta: 7 initialized @(8,0)
GPGPU-Sim uArch: core:  3, cta: 7 initialized @(8,0)
GPGPU-Sim uArch: core:  4, cta: 7 initialized @(8,0)
GPGPU-Sim uArch: core:  5, cta: 7 initialized @(8,0)
GPGPU-Sim uArch: core:  6, cta: 7 initialized @(8,0)
GPGPU-Sim uArch: core:  7, cta: 7 initialized @(8,0)
GPGPU-Sim uArch: core:  8, cta: 7 initialized @(8,0)
GPGPU-Sim uArch: core:  9, cta: 7 initialized @(8,0)
GPGPU-Sim uArch: core: 10, cta: 7 initialized @(8,0)
GPGPU-Sim uArch: core: 11, cta: 7 initialized @(8,0)
GPGPU-Sim uArch: core: 12, cta: 7 initialized @(8,0)
GPGPU-Sim uArch: core: 13, cta: 7 initialized @(8,0)
GPGPU-Sim uArch: core: 14, cta: 7 initialized @(8,0)
GPGPU-Sim uArch: core:  0, cta: 7 initialized @(8,0)
GPGPU-Sim PTX: 100000 instructions simulated : ctaid=(53,0,0) tid=(0,63,0)
GPGPU-Sim uArch: cycles simulated: 500  inst.: 120448 (ipc=240.9) sim_rate=120448 (inst/sec) elapsed = 0:0:00:01 / Fri Jan 16 06:18:13 2015
GPGPU-Sim PTX: 200000 instructions simulated : ctaid=(56,0,0) tid=(0,63,0)
GPGPU-Sim PTX: 300000 instructions simulated : ctaid=(90,0,0) tid=(0,127,0)
GPGPU-Sim PTX: 400000 instructions simulated : ctaid=(36,0,0) tid=(0,31,0)
GPGPU-Sim PTX: 500000 instructions simulated : ctaid=(75,0,0) tid=(0,63,0)
GPGPU-Sim uArch: cycles simulated: 1500  inst.: 516064 (ipc=344.0) sim_rate=258032 (inst/sec) elapsed = 0:0:00:02 / Fri Jan 16 06:18:14 2015
GPGPU-Sim PTX: 600000 instructions simulated : ctaid=(53,0,0) tid=(0,95,0)
GPGPU-Sim PTX: 700000 instructions simulated : ctaid=(6,0,0) tid=(0,31,0)
GPGPU-Sim PTX: 800000 instructions simulated : ctaid=(17,0,0) tid=(0,63,0)
GPGPU-Sim PTX: 900000 instructions simulated : ctaid=(15,0,0) tid=(0,32,0)
GPGPU-Sim PTX: 1000000 instructions simulated : ctaid=(16,0,0) tid=(0,37,0)
GPGPU-Sim PTX: 1100000 instructions simulated : ctaid=(27,0,0) tid=(0,15,0)
GPGPU-Sim PTX: 1200000 instructions simulated : ctaid=(10,0,0) tid=(0,63,0)
GPGPU-Sim PTX: 1300000 instructions simulated : ctaid=(35,0,0) tid=(0,93,0)
GPGPU-Sim uArch: cycles simulated: 2500  inst.: 1256807 (ipc=502.7) sim_rate=418935 (inst/sec) elapsed = 0:0:00:03 / Fri Jan 16 06:18:15 2015
GPGPU-Sim PTX: 1400000 instructions simulated : ctaid=(12,0,0) tid=(0,64,0)
GPGPU-Sim PTX: 1500000 instructions simulated : ctaid=(41,0,0) tid=(0,87,0)
GPGPU-Sim PTX: 1600000 instructions simulated : ctaid=(2,0,0) tid=(0,120,0)
GPGPU-Sim uArch: cycles simulated: 3000  inst.: 1585354 (ipc=528.5) sim_rate=396338 (inst/sec) elapsed = 0:0:00:04 / Fri Jan 16 06:18:16 2015
GPGPU-Sim PTX: 1700000 instructions simulated : ctaid=(33,0,0) tid=(0,77,0)
GPGPU-Sim PTX: 1800000 instructions simulated : ctaid=(44,0,0) tid=(0,45,0)
GPGPU-Sim PTX: 1900000 instructions simulated : ctaid=(8,0,0) tid=(0,80,0)
GPGPU-Sim PTX: 2000000 instructions simulated : ctaid=(13,0,0) tid=(0,77,0)
GPGPU-Sim PTX: 2100000 instructions simulated : ctaid=(54,0,0) tid=(0,80,0)
GPGPU-Sim PTX: 2200000 instructions simulated : ctaid=(36,0,0) tid=(0,21,0)
GPGPU-Sim PTX: 2300000 instructions simulated : ctaid=(36,0,0) tid=(0,78,0)
GPGPU-Sim uArch: cycles simulated: 4000  inst.: 2224084 (ipc=556.0) sim_rate=444816 (inst/sec) elapsed = 0:0:00:05 / Fri Jan 16 06:18:17 2015
GPGPU-Sim PTX: 2400000 instructions simulated : ctaid=(40,0,0) tid=(0,69,0)
GPGPU-Sim PTX: 2500000 instructions simulated : ctaid=(52,0,0) tid=(0,10,0)
GPGPU-Sim PTX: 2600000 instructions simulated : ctaid=(37,0,0) tid=(0,116,0)
GPGPU-Sim PTX: 2700000 instructions simulated : ctaid=(53,0,0) tid=(0,73,0)
GPGPU-Sim PTX: 2800000 instructions simulated : ctaid=(49,0,0) tid=(0,86,0)
GPGPU-Sim PTX: 2900000 instructions simulated : ctaid=(29,0,0) tid=(0,78,0)
GPGPU-Sim uArch: cycles simulated: 5000  inst.: 2779779 (ipc=556.0) sim_rate=463296 (inst/sec) elapsed = 0:0:00:06 / Fri Jan 16 06:18:18 2015
GPGPU-Sim PTX: 3000000 instructions simulated : ctaid=(27,0,0) tid=(0,66,0)
GPGPU-Sim PTX: 3100000 instructions simulated : ctaid=(18,0,0) tid=(0,40,0)
GPGPU-Sim PTX: 3200000 instructions simulated : ctaid=(76,0,0) tid=(0,27,0)
GPGPU-Sim PTX: 3300000 instructions simulated : ctaid=(16,0,0) tid=(0,79,0)
GPGPU-Sim PTX: 3400000 instructions simulated : ctaid=(7,0,0) tid=(0,47,0)
GPGPU-Sim uArch: cycles simulated: 6000  inst.: 3219672 (ipc=536.6) sim_rate=459953 (inst/sec) elapsed = 0:0:00:07 / Fri Jan 16 06:18:19 2015
GPGPU-Sim PTX: 3500000 instructions simulated : ctaid=(61,0,0) tid=(0,81,0)
GPGPU-Sim PTX: 3600000 instructions simulated : ctaid=(23,0,0) tid=(0,38,0)
GPGPU-Sim PTX: 3700000 instructions simulated : ctaid=(101,0,0) tid=(0,16,0)
GPGPU-Sim PTX: 3800000 instructions simulated : ctaid=(37,0,0) tid=(0,73,0)
GPGPU-Sim PTX: 3900000 instructions simulated : ctaid=(0,0,0) tid=(0,108,0)
GPGPU-Sim PTX: 4000000 instructions simulated : ctaid=(5,0,0) tid=(0,69,0)
GPGPU-Sim uArch: cycles simulated: 7500  inst.: 3799754 (ipc=506.6) sim_rate=474969 (inst/sec) elapsed = 0:0:00:08 / Fri Jan 16 06:18:20 2015
GPGPU-Sim PTX: 4100000 instructions simulated : ctaid=(60,0,0) tid=(0,62,0)
GPGPU-Sim PTX: 4200000 instructions simulated : ctaid=(74,0,0) tid=(0,123,0)
GPGPU-Sim PTX: 4300000 instructions simulated : ctaid=(71,0,0) tid=(0,102,0)
GPGPU-Sim uArch: cycles simulated: 8500  inst.: 4137034 (ipc=486.7) sim_rate=459670 (inst/sec) elapsed = 0:0:00:09 / Fri Jan 16 06:18:21 2015
GPGPU-Sim PTX: 4400000 instructions simulated : ctaid=(43,0,0) tid=(0,85,0)
GPGPU-Sim PTX: 4500000 instructions simulated : ctaid=(64,0,0) tid=(0,88,0)
GPGPU-Sim PTX: 4600000 instructions simulated : ctaid=(89,0,0) tid=(0,35,0)
GPGPU-Sim PTX: 4700000 instructions simulated : ctaid=(9,0,0) tid=(0,50,0)
GPGPU-Sim uArch: cycles simulated: 9500  inst.: 4440752 (ipc=467.4) sim_rate=444075 (inst/sec) elapsed = 0:0:00:10 / Fri Jan 16 06:18:22 2015
GPGPU-Sim PTX: 4800000 instructions simulated : ctaid=(64,0,0) tid=(0,21,0)
GPGPU-Sim PTX: 4900000 instructions simulated : ctaid=(28,0,0) tid=(0,69,0)
GPGPU-Sim uArch: cycles simulated: 10500  inst.: 4704518 (ipc=448.0) sim_rate=427683 (inst/sec) elapsed = 0:0:00:11 / Fri Jan 16 06:18:23 2015
GPGPU-Sim PTX: 5000000 instructions simulated : ctaid=(46,0,0) tid=(0,73,0)
GPGPU-Sim PTX: 5100000 instructions simulated : ctaid=(83,0,0) tid=(0,39,0)
GPGPU-Sim PTX: 5200000 instructions simulated : ctaid=(32,0,0) tid=(0,74,0)
GPGPU-Sim PTX: 5300000 instructions simulated : ctaid=(84,0,0) tid=(0,57,0)
GPGPU-Sim uArch: cycles simulated: 12000  inst.: 5071347 (ipc=422.6) sim_rate=422612 (inst/sec) elapsed = 0:0:00:12 / Fri Jan 16 06:18:24 2015
GPGPU-Sim PTX: 5400000 instructions simulated : ctaid=(16,0,0) tid=(0,79,0)
GPGPU-Sim PTX: 5500000 instructions simulated : ctaid=(84,0,0) tid=(0,102,0)
GPGPU-Sim PTX: 5600000 instructions simulated : ctaid=(76,0,0) tid=(0,123,0)
GPGPU-Sim uArch: cycles simulated: 13000  inst.: 5309402 (ipc=408.4) sim_rate=408415 (inst/sec) elapsed = 0:0:00:13 / Fri Jan 16 06:18:25 2015
GPGPU-Sim PTX: 5700000 instructions simulated : ctaid=(46,0,0) tid=(0,88,0)
GPGPU-Sim PTX: 5800000 instructions simulated : ctaid=(70,0,0) tid=(0,96,0)
GPGPU-Sim PTX: 5900000 instructions simulated : ctaid=(90,0,0) tid=(0,37,0)
GPGPU-Sim PTX: 6000000 instructions simulated : ctaid=(71,0,0) tid=(0,85,0)
GPGPU-Sim uArch: cycles simulated: 14500  inst.: 5654559 (ipc=390.0) sim_rate=403897 (inst/sec) elapsed = 0:0:00:14 / Fri Jan 16 06:18:26 2015
GPGPU-Sim PTX: 6100000 instructions simulated : ctaid=(82,0,0) tid=(0,72,0)
GPGPU-Sim PTX: 6200000 instructions simulated : ctaid=(23,0,0) tid=(0,80,0)
GPGPU-Sim uArch: cycles simulated: 15500  inst.: 5879938 (ipc=379.4) sim_rate=391995 (inst/sec) elapsed = 0:0:00:15 / Fri Jan 16 06:18:27 2015
GPGPU-Sim PTX: 6300000 instructions simulated : ctaid=(68,0,0) tid=(0,115,0)
GPGPU-Sim PTX: 6400000 instructions simulated : ctaid=(98,0,0) tid=(0,61,0)
GPGPU-Sim uArch: Shader 1 finished CTA #1 (16249,0), 7 CTAs running
GPGPU-Sim uArch: core:  1, cta: 1 initialized @(16250,0)
GPGPU-Sim PTX: 6500000 instructions simulated : ctaid=(63,0,0) tid=(0,113,0)
GPGPU-Sim uArch: Shader 7 finished CTA #0 (16780,0), 7 CTAs running
GPGPU-Sim uArch: core:  7, cta: 0 initialized @(16781,0)
GPGPU-Sim uArch: Shader 4 finished CTA #0 (16841,0), 7 CTAs running
GPGPU-Sim uArch: core:  4, cta: 0 initialized @(16842,0)
GPGPU-Sim uArch: Shader 1 finished CTA #0 (16856,0), 7 CTAs running
GPGPU-Sim uArch: core:  1, cta: 0 initialized @(16857,0)
GPGPU-Sim PTX: 6600000 instructions simulated : ctaid=(83,0,0) tid=(0,68,0)
GPGPU-Sim uArch: cycles simulated: 17000  inst.: 6248129 (ipc=367.5) sim_rate=390508 (inst/sec) elapsed = 0:0:00:16 / Fri Jan 16 06:18:28 2015
GPGPU-Sim PTX: 6700000 instructions simulated : ctaid=(61,0,0) tid=(0,116,0)
GPGPU-Sim PTX: 6800000 instructions simulated : ctaid=(103,0,0) tid=(0,50,0)
GPGPU-Sim PTX: 6900000 instructions simulated : ctaid=(68,0,0) tid=(0,100,0)
GPGPU-Sim uArch: Shader 9 finished CTA #2 (17953,0), 7 CTAs running
GPGPU-Sim uArch: core:  9, cta: 2 initialized @(17954,0)
GPGPU-Sim uArch: cycles simulated: 18000  inst.: 6523417 (ipc=362.4) sim_rate=383730 (inst/sec) elapsed = 0:0:00:17 / Fri Jan 16 06:18:29 2015
GPGPU-Sim uArch: Shader 1 finished CTA #2 (18132,0), 7 CTAs running
GPGPU-Sim uArch: core:  1, cta: 2 initialized @(18133,0)
GPGPU-Sim PTX: 7000000 instructions simulated : ctaid=(76,0,0) tid=(0,122,0)
GPGPU-Sim uArch: Shader 2 finished CTA #1 (18454,0), 7 CTAs running
GPGPU-Sim uArch: core:  2, cta: 1 initialized @(18455,0)
GPGPU-Sim PTX: 7100000 instructions simulated : ctaid=(81,0,0) tid=(0,5,0)
GPGPU-Sim PTX: 7200000 instructions simulated : ctaid=(57,0,0) tid=(0,99,0)
GPGPU-Sim uArch: cycles simulated: 19000  inst.: 6807079 (ipc=358.3) sim_rate=378171 (inst/sec) elapsed = 0:0:00:18 / Fri Jan 16 06:18:30 2015
GPGPU-Sim uArch: Shader 8 finished CTA #0 (19194,0), 7 CTAs running
GPGPU-Sim uArch: core:  8, cta: 0 initialized @(19195,0)
GPGPU-Sim uArch: Shader 6 finished CTA #2 (19211,0), 7 CTAs running
GPGPU-Sim uArch: core:  6, cta: 2 initialized @(19212,0)
GPGPU-Sim PTX: 7300000 instructions simulated : ctaid=(98,0,0) tid=(0,95,0)
GPGPU-Sim PTX: 7400000 instructions simulated : ctaid=(104,0,0) tid=(0,8,0)
GPGPU-Sim PTX: 7500000 instructions simulated : ctaid=(65,0,0) tid=(0,115,0)
GPGPU-Sim uArch: Shader 12 finished CTA #0 (19921,0), 7 CTAs running
GPGPU-Sim uArch: core: 12, cta: 0 initialized @(19922,0)
GPGPU-Sim uArch: cycles simulated: 20000  inst.: 7093270 (ipc=354.7) sim_rate=373330 (inst/sec) elapsed = 0:0:00:19 / Fri Jan 16 06:18:31 2015
GPGPU-Sim PTX: 7600000 instructions simulated : ctaid=(116,0,0) tid=(0,38,0)
GPGPU-Sim PTX: 7700000 instructions simulated : ctaid=(99,0,0) tid=(0,14,0)
GPGPU-Sim uArch: Shader 8 finished CTA #1 (20606,0), 7 CTAs running
GPGPU-Sim uArch: core:  8, cta: 1 initialized @(20607,0)
GPGPU-Sim uArch: Shader 11 finished CTA #1 (20624,0), 7 CTAs running
GPGPU-Sim uArch: core: 11, cta: 1 initialized @(20625,0)
GPGPU-Sim uArch: Shader 14 finished CTA #0 (20893,0), 7 CTAs running
GPGPU-Sim uArch: core: 14, cta: 0 initialized @(20894,0)
GPGPU-Sim PTX: 7800000 instructions simulated : ctaid=(69,0,0) tid=(0,15,0)
GPGPU-Sim uArch: Shader 7 finished CTA #3 (21053,0), 7 CTAs running
GPGPU-Sim uArch: core:  7, cta: 3 initialized @(21054,0)
GPGPU-Sim PTX: 7900000 instructions simulated : ctaid=(113,0,0) tid=(0,9,0)
GPGPU-Sim uArch: cycles simulated: 21500  inst.: 7503932 (ipc=349.0) sim_rate=375196 (inst/sec) elapsed = 0:0:00:20 / Fri Jan 16 06:18:32 2015
GPGPU-Sim PTX: 8000000 instructions simulated : ctaid=(118,0,0) tid=(0,61,0)
GPGPU-Sim uArch: Shader 14 finished CTA #1 (21940,0), 7 CTAs running
GPGPU-Sim uArch: core: 14, cta: 1 initialized @(21941,0)
GPGPU-Sim uArch: Shader 9 finished CTA #0 (21947,0), 7 CTAs running
GPGPU-Sim uArch: core:  9, cta: 0 initialized @(21948,0)
GPGPU-Sim PTX: 8100000 instructions simulated : ctaid=(113,0,0) tid=(0,21,0)
GPGPU-Sim uArch: Shader 10 finished CTA #1 (22124,0), 7 CTAs running
GPGPU-Sim uArch: core: 10, cta: 1 initialized @(22125,0)
GPGPU-Sim PTX: 8200000 instructions simulated : ctaid=(101,0,0) tid=(0,99,0)
GPGPU-Sim uArch: Shader 6 finished CTA #1 (22411,0), 7 CTAs running
GPGPU-Sim uArch: core:  6, cta: 1 initialized @(22412,0)
GPGPU-Sim uArch: cycles simulated: 22500  inst.: 7777831 (ipc=345.7) sim_rate=370372 (inst/sec) elapsed = 0:0:00:21 / Fri Jan 16 06:18:33 2015
GPGPU-Sim PTX: 8300000 instructions simulated : ctaid=(53,0,0) tid=(0,104,0)
GPGPU-Sim PTX: 8400000 instructions simulated : ctaid=(116,0,0) tid=(0,70,0)
GPGPU-Sim PTX: 8500000 instructions simulated : ctaid=(80,0,0) tid=(0,118,0)
GPGPU-Sim uArch: cycles simulated: 23500  inst.: 8037633 (ipc=342.0) sim_rate=365346 (inst/sec) elapsed = 0:0:00:22 / Fri Jan 16 06:18:34 2015
GPGPU-Sim PTX: 8600000 instructions simulated : ctaid=(98,0,0) tid=(0,19,0)
GPGPU-Sim uArch: Shader 8 finished CTA #2 (23766,0), 7 CTAs running
GPGPU-Sim uArch: core:  8, cta: 2 initialized @(23767,0)
GPGPU-Sim PTX: 8700000 instructions simulated : ctaid=(110,0,0) tid=(0,100,0)
GPGPU-Sim PTX: 8800000 instructions simulated : ctaid=(128,0,0) tid=(0,36,0)
GPGPU-Sim uArch: Shader 12 finished CTA #1 (24652,0), 7 CTAs running
GPGPU-Sim uArch: core: 12, cta: 1 initialized @(24653,0)
GPGPU-Sim PTX: 8900000 instructions simulated : ctaid=(127,0,0) tid=(0,116,0)
GPGPU-Sim uArch: Shader 13 finished CTA #5 (24896,0), 7 CTAs running
GPGPU-Sim uArch: core: 13, cta: 5 initialized @(24897,0)
GPGPU-Sim uArch: Shader 3 finished CTA #2 (24952,0), 7 CTAs running
GPGPU-Sim uArch: core:  3, cta: 2 initialized @(24953,0)
GPGPU-Sim uArch: cycles simulated: 25000  inst.: 8421388 (ipc=336.9) sim_rate=366147 (inst/sec) elapsed = 0:0:00:23 / Fri Jan 16 06:18:35 2015
GPGPU-Sim PTX: 9000000 instructions simulated : ctaid=(107,0,0) tid=(0,100,0)
GPGPU-Sim uArch: Shader 11 finished CTA #2 (25240,0), 7 CTAs running
GPGPU-Sim uArch: core: 11, cta: 2 initialized @(25241,0)
GPGPU-Sim uArch: Shader 4 finished CTA #1 (25466,0), 7 CTAs running
GPGPU-Sim uArch: core:  4, cta: 1 initialized @(25467,0)
GPGPU-Sim PTX: 9100000 instructions simulated : ctaid=(29,0,0) tid=(0,64,0)
GPGPU-Sim uArch: Shader 10 finished CTA #0 (25667,0), 7 CTAs running
GPGPU-Sim uArch: core: 10, cta: 0 initialized @(25668,0)
GPGPU-Sim uArch: Shader 5 finished CTA #3 (25890,0), 7 CTAs running
GPGPU-Sim uArch: core:  5, cta: 3 initialized @(25891,0)
GPGPU-Sim uArch: Shader 6 finished CTA #3 (25892,0), 7 CTAs running
GPGPU-Sim uArch: core:  6, cta: 3 initialized @(25893,0)
GPGPU-Sim PTX: 9200000 instructions simulated : ctaid=(116,0,0) tid=(0,78,0)
GPGPU-Sim uArch: cycles simulated: 26000  inst.: 8683953 (ipc=334.0) sim_rate=361831 (inst/sec) elapsed = 0:0:00:24 / Fri Jan 16 06:18:36 2015
GPGPU-Sim PTX: 9300000 instructions simulated : ctaid=(78,0,0) tid=(0,88,0)
GPGPU-Sim uArch: Shader 13 finished CTA #0 (26545,0), 7 CTAs running
GPGPU-Sim uArch: core: 13, cta: 0 initialized @(26546,0)
GPGPU-Sim PTX: 9400000 instructions simulated : ctaid=(111,0,0) tid=(0,22,0)
GPGPU-Sim uArch: Shader 1 finished CTA #3 (26672,0), 7 CTAs running
GPGPU-Sim uArch: core:  1, cta: 3 initialized @(26673,0)
GPGPU-Sim uArch: Shader 0 finished CTA #0 (26806,0), 7 CTAs running
GPGPU-Sim uArch: core:  0, cta: 0 initialized @(26807,0)
GPGPU-Sim PTX: 9500000 instructions simulated : ctaid=(92,0,0) tid=(0,4,0)
GPGPU-Sim uArch: Shader 0 finished CTA #3 (26942,0), 7 CTAs running
GPGPU-Sim uArch: core:  0, cta: 3 initialized @(26943,0)
GPGPU-Sim uArch: cycles simulated: 27000  inst.: 8962983 (ipc=332.0) sim_rate=358519 (inst/sec) elapsed = 0:0:00:25 / Fri Jan 16 06:18:37 2015
GPGPU-Sim uArch: Shader 13 finished CTA #1 (27133,0), 7 CTAs running
GPGPU-Sim uArch: core: 13, cta: 1 initialized @(27134,0)
GPGPU-Sim PTX: 9600000 instructions simulated : ctaid=(119,0,0) tid=(0,67,0)
GPGPU-Sim uArch: Shader 6 finished CTA #0 (27404,0), 7 CTAs running
GPGPU-Sim uArch: core:  6, cta: 0 initialized @(27405,0)
GPGPU-Sim uArch: Shader 12 finished CTA #3 (27448,0), 7 CTAs running
GPGPU-Sim uArch: core: 12, cta: 3 initialized @(27449,0)
GPGPU-Sim PTX: 9700000 instructions simulated : ctaid=(127,0,0) tid=(0,107,0)
GPGPU-Sim uArch: Shader 2 finished CTA #0 (27605,0), 7 CTAs running
GPGPU-Sim uArch: core:  2, cta: 0 initialized @(27606,0)
GPGPU-Sim PTX: 9800000 instructions simulated : ctaid=(154,0,0) tid=(0,121,0)
GPGPU-Sim uArch: Shader 4 finished CTA #2 (27883,0), 7 CTAs running
GPGPU-Sim uArch: core:  4, cta: 2 initialized @(27884,0)
GPGPU-Sim PTX: 9900000 instructions simulated : ctaid=(128,0,0) tid=(0,86,0)
GPGPU-Sim uArch: Shader 2 finished CTA #2 (28286,0), 7 CTAs running
GPGPU-Sim uArch: core:  2, cta: 2 initialized @(28287,0)
GPGPU-Sim PTX: 10000000 instructions simulated : ctaid=(154,0,0) tid=(0,117,0)
GPGPU-Sim uArch: cycles simulated: 28500  inst.: 9433222 (ipc=331.0) sim_rate=362816 (inst/sec) elapsed = 0:0:00:26 / Fri Jan 16 06:18:38 2015
GPGPU-Sim uArch: Shader 12 finished CTA #5 (28608,0), 7 CTAs running
GPGPU-Sim uArch: core: 12, cta: 5 initialized @(28609,0)
GPGPU-Sim uArch: Shader 6 finished CTA #5 (28707,0), 7 CTAs running
GPGPU-Sim uArch: core:  6, cta: 5 initialized @(28708,0)
GPGPU-Sim PTX: 10100000 instructions simulated : ctaid=(43,0,0) tid=(0,89,0)
GPGPU-Sim uArch: Shader 5 finished CTA #1 (28771,0), 7 CTAs running
GPGPU-Sim uArch: core:  5, cta: 1 initialized @(28772,0)
GPGPU-Sim uArch: Shader 12 finished CTA #2 (28831,0), 7 CTAs running
GPGPU-Sim uArch: core: 12, cta: 2 initialized @(28832,0)
GPGPU-Sim uArch: Shader 11 finished CTA #4 (28953,0), 7 CTAs running
GPGPU-Sim uArch: core: 11, cta: 4 initialized @(28954,0)
GPGPU-Sim PTX: 10200000 instructions simulated : ctaid=(123,0,0) tid=(0,55,0)
GPGPU-Sim uArch: Shader 14 finished CTA #4 (29198,0), 7 CTAs running
GPGPU-Sim uArch: core: 14, cta: 4 initialized @(29199,0)
GPGPU-Sim PTX: 10300000 instructions simulated : ctaid=(142,0,0) tid=(0,76,0)
GPGPU-Sim uArch: Shader 5 finished CTA #4 (29481,0), 7 CTAs running
GPGPU-Sim uArch: core:  5, cta: 4 initialized @(29482,0)
GPGPU-Sim uArch: cycles simulated: 29500  inst.: 9789750 (ipc=331.9) sim_rate=362583 (inst/sec) elapsed = 0:0:00:27 / Fri Jan 16 06:18:39 2015
GPGPU-Sim PTX: 10400000 instructions simulated : ctaid=(105,0,0) tid=(0,70,0)
GPGPU-Sim uArch: Shader 3 finished CTA #0 (29679,0), 7 CTAs running
GPGPU-Sim uArch: core:  3, cta: 0 initialized @(29680,0)
GPGPU-Sim uArch: Shader 9 finished CTA #3 (29720,0), 7 CTAs running
GPGPU-Sim uArch: core:  9, cta: 3 initialized @(29721,0)
GPGPU-Sim PTX: 10500000 instructions simulated : ctaid=(69,0,0) tid=(0,15,0)
GPGPU-Sim uArch: Shader 13 finished CTA #2 (29775,0), 7 CTAs running
GPGPU-Sim uArch: core: 13, cta: 2 initialized @(29776,0)
GPGPU-Sim uArch: Shader 3 finished CTA #4 (29797,0), 7 CTAs running
GPGPU-Sim uArch: core:  3, cta: 4 initialized @(29798,0)
GPGPU-Sim uArch: Shader 14 finished CTA #2 (29856,0), 7 CTAs running
GPGPU-Sim uArch: core: 14, cta: 2 initialized @(29857,0)
GPGPU-Sim PTX: 10600000 instructions simulated : ctaid=(118,0,0) tid=(0,81,0)
GPGPU-Sim uArch: Shader 3 finished CTA #3 (30056,0), 7 CTAs running
GPGPU-Sim uArch: core:  3, cta: 3 initialized @(30057,0)
GPGPU-Sim uArch: Shader 4 finished CTA #3 (30132,0), 7 CTAs running
GPGPU-Sim uArch: core:  4, cta: 3 initialized @(30133,0)
GPGPU-Sim PTX: 10700000 instructions simulated : ctaid=(122,0,0) tid=(0,89,0)
GPGPU-Sim uArch: Shader 11 finished CTA #5 (30249,0), 7 CTAs running
GPGPU-Sim uArch: core: 11, cta: 5 initialized @(30250,0)
GPGPU-Sim uArch: Shader 7 finished CTA #4 (30338,0), 7 CTAs running
GPGPU-Sim uArch: core:  7, cta: 4 initialized @(30339,0)
GPGPU-Sim PTX: 10800000 instructions simulated : ctaid=(130,0,0) tid=(0,57,0)
GPGPU-Sim uArch: Shader 11 finished CTA #3 (30491,0), 7 CTAs running
GPGPU-Sim uArch: core: 11, cta: 3 initialized @(30492,0)
GPGPU-Sim uArch: cycles simulated: 30500  inst.: 10170550 (ipc=333.5) sim_rate=363233 (inst/sec) elapsed = 0:0:00:28 / Fri Jan 16 06:18:40 2015
GPGPU-Sim PTX: 10900000 instructions simulated : ctaid=(109,0,0) tid=(0,107,0)
GPGPU-Sim uArch: Shader 7 finished CTA #1 (30800,0), 7 CTAs running
GPGPU-Sim uArch: core:  7, cta: 1 initialized @(30801,0)
GPGPU-Sim uArch: Shader 0 finished CTA #2 (30931,0), 7 CTAs running
GPGPU-Sim uArch: core:  0, cta: 2 initialized @(30932,0)
GPGPU-Sim uArch: Shader 1 finished CTA #4 (30945,0), 7 CTAs running
GPGPU-Sim uArch: core:  1, cta: 4 initialized @(30946,0)
GPGPU-Sim PTX: 11000000 instructions simulated : ctaid=(122,0,0) tid=(0,70,0)
GPGPU-Sim PTX: 11100000 instructions simulated : ctaid=(109,0,0) tid=(0,28,0)
GPGPU-Sim uArch: Shader 11 finished CTA #0 (31231,0), 7 CTAs running
GPGPU-Sim uArch: core: 11, cta: 0 initialized @(31232,0)
GPGPU-Sim PTX: 11200000 instructions simulated : ctaid=(131,0,0) tid=(0,5,0)
GPGPU-Sim uArch: cycles simulated: 31500  inst.: 10561218 (ipc=335.3) sim_rate=364179 (inst/sec) elapsed = 0:0:00:29 / Fri Jan 16 06:18:41 2015
GPGPU-Sim uArch: Shader 9 finished CTA #5 (31565,0), 7 CTAs running
GPGPU-Sim uArch: core:  9, cta: 5 initialized @(31566,0)
GPGPU-Sim PTX: 11300000 instructions simulated : ctaid=(142,0,0) tid=(0,8,0)
GPGPU-Sim uArch: Shader 14 finished CTA #5 (31757,0), 7 CTAs running
GPGPU-Sim uArch: core: 14, cta: 5 initialized @(31758,0)
GPGPU-Sim uArch: Shader 3 finished CTA #1 (31887,0), 7 CTAs running
GPGPU-Sim uArch: core:  3, cta: 1 initialized @(31888,0)
GPGPU-Sim PTX: 11400000 instructions simulated : ctaid=(167,0,0) tid=(0,11,0)
GPGPU-Sim uArch: Shader 0 finished CTA #1 (31968,0), 7 CTAs running
GPGPU-Sim uArch: core:  0, cta: 1 initialized @(31969,0)
GPGPU-Sim uArch: cycles simulated: 32000  inst.: 10767083 (ipc=336.5) sim_rate=358902 (inst/sec) elapsed = 0:0:00:30 / Fri Jan 16 06:18:42 2015
GPGPU-Sim PTX: 11500000 instructions simulated : ctaid=(139,0,0) tid=(0,33,0)
GPGPU-Sim uArch: Shader 9 finished CTA #1 (32257,0), 7 CTAs running
GPGPU-Sim uArch: core:  9, cta: 1 initialized @(32258,0)
GPGPU-Sim PTX: 11600000 instructions simulated : ctaid=(121,0,0) tid=(0,83,0)
GPGPU-Sim PTX: 11700000 instructions simulated : ctaid=(137,0,0) tid=(0,23,0)
GPGPU-Sim uArch: Shader 0 finished CTA #4 (32695,0), 7 CTAs running
GPGPU-Sim uArch: core:  0, cta: 4 initialized @(32696,0)
GPGPU-Sim uArch: Shader 8 finished CTA #3 (32700,0), 7 CTAs running
GPGPU-Sim uArch: core:  8, cta: 3 initialized @(32701,0)
GPGPU-Sim uArch: Shader 12 finished CTA #6 (32740,0), 7 CTAs running
GPGPU-Sim uArch: core: 12, cta: 6 initialized @(32741,0)
GPGPU-Sim uArch: Shader 10 finished CTA #2 (32755,0), 7 CTAs running
GPGPU-Sim uArch: core: 10, cta: 2 initialized @(32756,0)
GPGPU-Sim PTX: 11800000 instructions simulated : ctaid=(92,0,0) tid=(0,122,0)
GPGPU-Sim uArch: cycles simulated: 33000  inst.: 11168461 (ipc=338.4) sim_rate=360272 (inst/sec) elapsed = 0:0:00:31 / Fri Jan 16 06:18:43 2015
GPGPU-Sim uArch: Shader 5 finished CTA #0 (33051,0), 7 CTAs running
GPGPU-Sim uArch: core:  5, cta: 0 initialized @(33052,0)
GPGPU-Sim PTX: 11900000 instructions simulated : ctaid=(112,0,0) tid=(0,29,0)
GPGPU-Sim PTX: 12000000 instructions simulated : ctaid=(153,0,0) tid=(0,14,0)
GPGPU-Sim uArch: Shader 5 finished CTA #2 (33350,0), 7 CTAs running
GPGPU-Sim uArch: core:  5, cta: 2 initialized @(33351,0)
GPGPU-Sim uArch: Shader 10 finished CTA #4 (33400,0), 7 CTAs running
GPGPU-Sim uArch: core: 10, cta: 4 initialized @(33401,0)
GPGPU-Sim uArch: Shader 9 finished CTA #4 (33487,0), 7 CTAs running
GPGPU-Sim uArch: core:  9, cta: 4 initialized @(33488,0)
GPGPU-Sim PTX: 12100000 instructions simulated : ctaid=(127,0,0) tid=(0,84,0)
GPGPU-Sim uArch: Shader 7 finished CTA #2 (33588,0), 7 CTAs running
GPGPU-Sim uArch: core:  7, cta: 2 initialized @(33589,0)
GPGPU-Sim PTX: 12200000 instructions simulated : ctaid=(129,0,0) tid=(0,108,0)
GPGPU-Sim uArch: Shader 2 finished CTA #3 (33786,0), 7 CTAs running
GPGPU-Sim uArch: core:  2, cta: 3 initialized @(33787,0)
GPGPU-Sim uArch: Shader 7 finished CTA #5 (33792,0), 7 CTAs running
GPGPU-Sim uArch: core:  7, cta: 5 initialized @(33793,0)
GPGPU-Sim uArch: cycles simulated: 34000  inst.: 11572969 (ipc=340.4) sim_rate=361655 (inst/sec) elapsed = 0:0:00:32 / Fri Jan 16 06:18:44 2015
GPGPU-Sim PTX: 12300000 instructions simulated : ctaid=(165,0,0) tid=(0,40,0)
GPGPU-Sim uArch: Shader 7 finished CTA #6 (34172,0), 7 CTAs running
GPGPU-Sim uArch: core:  7, cta: 6 initialized @(34173,0)
GPGPU-Sim uArch: Shader 8 finished CTA #4 (34230,0), 7 CTAs running
GPGPU-Sim uArch: core:  8, cta: 4 initialized @(34231,0)
GPGPU-Sim PTX: 12400000 instructions simulated : ctaid=(159,0,0) tid=(0,6,0)
GPGPU-Sim PTX: 12500000 instructions simulated : ctaid=(133,0,0) tid=(0,70,0)
GPGPU-Sim PTX: 12600000 instructions simulated : ctaid=(172,0,0) tid=(0,10,0)
GPGPU-Sim uArch: Shader 11 finished CTA #6 (34854,0), 7 CTAs running
GPGPU-Sim uArch: core: 11, cta: 6 initialized @(34855,0)
GPGPU-Sim PTX: 12700000 instructions simulated : ctaid=(180,0,0) tid=(0,61,0)
GPGPU-Sim uArch: Shader 2 finished CTA #6 (34938,0), 7 CTAs running
GPGPU-Sim uArch: core:  2, cta: 6 initialized @(34939,0)
GPGPU-Sim uArch: cycles simulated: 35000  inst.: 11979330 (ipc=342.3) sim_rate=363010 (inst/sec) elapsed = 0:0:00:33 / Fri Jan 16 06:18:45 2015
GPGPU-Sim PTX: 12800000 instructions simulated : ctaid=(164,0,0) tid=(0,80,0)
GPGPU-Sim uArch: Shader 10 finished CTA #3 (35236,0), 7 CTAs running
GPGPU-Sim uArch: core: 10, cta: 3 initialized @(35237,0)
GPGPU-Sim PTX: 12900000 instructions simulated : ctaid=(134,0,0) tid=(0,0,0)
GPGPU-Sim uArch: Shader 12 finished CTA #4 (35518,0), 7 CTAs running
GPGPU-Sim uArch: core: 12, cta: 4 initialized @(35519,0)
GPGPU-Sim uArch: Shader 13 finished CTA #4 (35605,0), 7 CTAs running
GPGPU-Sim uArch: core: 13, cta: 4 initialized @(35606,0)
GPGPU-Sim PTX: 13000000 instructions simulated : ctaid=(155,0,0) tid=(0,9,0)
GPGPU-Sim uArch: Shader 13 finished CTA #6 (35746,0), 7 CTAs running
GPGPU-Sim uArch: core: 13, cta: 6 initialized @(35747,0)
GPGPU-Sim PTX: 13100000 instructions simulated : ctaid=(79,0,0) tid=(0,88,0)
GPGPU-Sim uArch: cycles simulated: 36000  inst.: 12370680 (ipc=343.6) sim_rate=363843 (inst/sec) elapsed = 0:0:00:34 / Fri Jan 16 06:18:46 2015
GPGPU-Sim PTX: 13200000 instructions simulated : ctaid=(165,0,0) tid=(0,25,0)
GPGPU-Sim uArch: Shader 1 finished CTA #5 (36263,0), 7 CTAs running
GPGPU-Sim uArch: core:  1, cta: 5 initialized @(36264,0)
GPGPU-Sim PTX: 13300000 instructions simulated : ctaid=(162,0,0) tid=(0,61,0)
GPGPU-Sim uArch: Shader 8 finished CTA #6 (36434,0), 7 CTAs running
GPGPU-Sim uArch: core:  8, cta: 6 initialized @(36435,0)
GPGPU-Sim uArch: Shader 0 finished CTA #6 (36455,0), 7 CTAs running
GPGPU-Sim uArch: core:  0, cta: 6 initialized @(36456,0)
GPGPU-Sim PTX: 13400000 instructions simulated : ctaid=(117,0,0) tid=(0,125,0)
GPGPU-Sim PTX: 13500000 instructions simulated : ctaid=(151,0,0) tid=(0,89,0)
GPGPU-Sim uArch: cycles simulated: 37000  inst.: 12742579 (ipc=344.4) sim_rate=364073 (inst/sec) elapsed = 0:0:00:35 / Fri Jan 16 06:18:47 2015
GPGPU-Sim PTX: 13600000 instructions simulated : ctaid=(112,0,0) tid=(0,69,0)
GPGPU-Sim PTX: 13700000 instructions simulated : ctaid=(124,0,0) tid=(0,11,0)
GPGPU-Sim PTX: 13800000 instructions simulated : ctaid=(125,0,0) tid=(0,106,0)
GPGPU-Sim uArch: cycles simulated: 38000  inst.: 13076151 (ipc=344.1) sim_rate=363226 (inst/sec) elapsed = 0:0:00:36 / Fri Jan 16 06:18:48 2015
GPGPU-Sim PTX: 13900000 instructions simulated : ctaid=(110,0,0) tid=(0,73,0)
GPGPU-Sim uArch: Shader 2 finished CTA #7 (38034,0), 7 CTAs running
GPGPU-Sim uArch: core:  2, cta: 7 initialized @(38035,0)
GPGPU-Sim PTX: 14000000 instructions simulated : ctaid=(134,0,0) tid=(0,77,0)
GPGPU-Sim uArch: Shader 14 finished CTA #3 (38515,0), 7 CTAs running
GPGPU-Sim uArch: core: 14, cta: 3 initialized @(38516,0)
GPGPU-Sim PTX: 14100000 instructions simulated : ctaid=(143,0,0) tid=(0,122,0)
GPGPU-Sim PTX: 14200000 instructions simulated : ctaid=(197,0,0) tid=(0,10,0)
GPGPU-Sim uArch: cycles simulated: 39000  inst.: 13418771 (ipc=344.1) sim_rate=362669 (inst/sec) elapsed = 0:0:00:37 / Fri Jan 16 06:18:49 2015
GPGPU-Sim uArch: Shader 10 finished CTA #5 (39025,0), 7 CTAs running
GPGPU-Sim uArch: core: 10, cta: 5 initialized @(39026,0)
GPGPU-Sim PTX: 14300000 instructions simulated : ctaid=(159,0,0) tid=(0,100,0)
GPGPU-Sim uArch: Shader 13 finished CTA #3 (39270,0), 7 CTAs running
GPGPU-Sim uArch: core: 13, cta: 3 initialized @(39271,0)
GPGPU-Sim PTX: 14400000 instructions simulated : ctaid=(183,0,0) tid=(0,111,0)
GPGPU-Sim PTX: 14500000 instructions simulated : ctaid=(125,0,0) tid=(0,98,0)
GPGPU-Sim uArch: cycles simulated: 40000  inst.: 13740955 (ipc=343.5) sim_rate=361604 (inst/sec) elapsed = 0:0:00:38 / Fri Jan 16 06:18:50 2015
GPGPU-Sim PTX: 14600000 instructions simulated : ctaid=(203,0,0) tid=(0,98,0)
GPGPU-Sim uArch: Shader 4 finished CTA #4 (40038,0), 7 CTAs running
GPGPU-Sim uArch: core:  4, cta: 4 initialized @(40039,0)
GPGPU-Sim PTX: 14700000 instructions simulated : ctaid=(109,0,0) tid=(0,81,0)
GPGPU-Sim uArch: Shader 8 finished CTA #5 (40343,0), 7 CTAs running
GPGPU-Sim uArch: core:  8, cta: 5 initialized @(40344,0)
GPGPU-Sim PTX: 14800000 instructions simulated : ctaid=(138,0,0) tid=(0,98,0)
GPGPU-Sim uArch: Shader 4 finished CTA #5 (40847,0), 7 CTAs running
GPGPU-Sim uArch: core:  4, cta: 5 initialized @(40848,0)
GPGPU-Sim PTX: 14900000 instructions simulated : ctaid=(170,0,0) tid=(0,3,0)
GPGPU-Sim uArch: Shader 2 finished CTA #4 (40913,0), 7 CTAs running
GPGPU-Sim uArch: core:  2, cta: 4 initialized @(40914,0)
GPGPU-Sim uArch: Shader 5 finished CTA #5 (40939,0), 7 CTAs running
GPGPU-Sim uArch: core:  5, cta: 5 initialized @(40940,0)
GPGPU-Sim uArch: cycles simulated: 41000  inst.: 14054329 (ipc=342.8) sim_rate=360367 (inst/sec) elapsed = 0:0:00:39 / Fri Jan 16 06:18:51 2015
GPGPU-Sim uArch: Shader 6 finished CTA #6 (41146,0), 7 CTAs running
GPGPU-Sim uArch: core:  6, cta: 6 initialized @(41147,0)
GPGPU-Sim PTX: 15000000 instructions simulated : ctaid=(169,0,0) tid=(0,13,0)
GPGPU-Sim uArch: Shader 14 finished CTA #6 (41460,0), 7 CTAs running
GPGPU-Sim uArch: core: 14, cta: 6 initialized @(41461,0)
GPGPU-Sim PTX: 15100000 instructions simulated : ctaid=(178,0,0) tid=(0,78,0)
GPGPU-Sim uArch: Shader 0 finished CTA #5 (41534,0), 7 CTAs running
GPGPU-Sim uArch: core:  0, cta: 5 initialized @(41535,0)
GPGPU-Sim PTX: 15200000 instructions simulated : ctaid=(129,0,0) tid=(0,74,0)
GPGPU-Sim uArch: cycles simulated: 42000  inst.: 14360106 (ipc=341.9) sim_rate=359002 (inst/sec) elapsed = 0:0:00:40 / Fri Jan 16 06:18:52 2015
GPGPU-Sim PTX: 15300000 instructions simulated : ctaid=(124,0,0) tid=(0,92,0)
GPGPU-Sim PTX: 15400000 instructions simulated : ctaid=(182,0,0) tid=(0,19,0)
GPGPU-Sim PTX: 15500000 instructions simulated : ctaid=(183,0,0) tid=(0,111,0)
GPGPU-Sim PTX: 15600000 instructions simulated : ctaid=(109,0,0) tid=(0,80,0)
GPGPU-Sim PTX: 15700000 instructions simulated : ctaid=(191,0,0) tid=(0,77,0)
GPGPU-Sim uArch: cycles simulated: 43500  inst.: 14801787 (ipc=340.3) sim_rate=361019 (inst/sec) elapsed = 0:0:00:41 / Fri Jan 16 06:18:53 2015
GPGPU-Sim uArch: Shader 6 finished CTA #4 (43598,0), 7 CTAs running
GPGPU-Sim uArch: core:  6, cta: 4 initialized @(43599,0)
GPGPU-Sim uArch: Shader 3 finished CTA #6 (43612,0), 7 CTAs running
GPGPU-Sim uArch: core:  3, cta: 6 initialized @(43613,0)
GPGPU-Sim PTX: 15800000 instructions simulated : ctaid=(152,0,0) tid=(0,111,0)
GPGPU-Sim uArch: Shader 2 finished CTA #5 (43836,0), 7 CTAs running
GPGPU-Sim uArch: core:  2, cta: 5 initialized @(43837,0)
GPGPU-Sim uArch: Shader 4 finished CTA #6 (44034,0), 7 CTAs running
GPGPU-Sim uArch: core:  4, cta: 6 initialized @(44035,0)
GPGPU-Sim PTX: 15900000 instructions simulated : ctaid=(151,0,0) tid=(0,105,0)
GPGPU-Sim PTX: 16000000 instructions simulated : ctaid=(182,0,0) tid=(0,14,0)
GPGPU-Sim uArch: cycles simulated: 44500  inst.: 15098174 (ipc=339.3) sim_rate=359480 (inst/sec) elapsed = 0:0:00:42 / Fri Jan 16 06:18:54 2015
GPGPU-Sim PTX: 16100000 instructions simulated : ctaid=(176,0,0) tid=(0,39,0)
GPGPU-Sim uArch: Shader 2 finished CTA #0 (44705,0), 7 CTAs running
GPGPU-Sim uArch: core:  2, cta: 0 initialized @(44706,0)
GPGPU-Sim uArch: Shader 1 finished CTA #7 (44785,0), 7 CTAs running
GPGPU-Sim uArch: core:  1, cta: 7 initialized @(44786,0)
GPGPU-Sim PTX: 16200000 instructions simulated : ctaid=(180,0,0) tid=(0,78,0)
GPGPU-Sim PTX: 16300000 instructions simulated : ctaid=(134,0,0) tid=(0,88,0)
GPGPU-Sim uArch: cycles simulated: 45500  inst.: 15386789 (ipc=338.2) sim_rate=357832 (inst/sec) elapsed = 0:0:00:43 / Fri Jan 16 06:18:55 2015
GPGPU-Sim PTX: 16400000 instructions simulated : ctaid=(157,0,0) tid=(0,67,0)
GPGPU-Sim uArch: Shader 1 finished CTA #6 (45773,0), 7 CTAs running
GPGPU-Sim uArch: core:  1, cta: 6 initialized @(45774,0)
GPGPU-Sim PTX: 16500000 instructions simulated : ctaid=(212,0,0) tid=(0,114,0)
GPGPU-Sim PTX: 16600000 instructions simulated : ctaid=(173,0,0) tid=(0,57,0)
GPGPU-Sim uArch: Shader 11 finished CTA #7 (46401,0), 7 CTAs running
GPGPU-Sim uArch: core: 11, cta: 7 initialized @(46402,0)
GPGPU-Sim uArch: cycles simulated: 46500  inst.: 15671571 (ipc=337.0) sim_rate=356172 (inst/sec) elapsed = 0:0:00:44 / Fri Jan 16 06:18:56 2015
GPGPU-Sim PTX: 16700000 instructions simulated : ctaid=(206,0,0) tid=(0,122,0)
GPGPU-Sim PTX: 16800000 instructions simulated : ctaid=(200,0,0) tid=(0,33,0)
GPGPU-Sim uArch: Shader 9 finished CTA #2 (47131,0), 7 CTAs running
GPGPU-Sim uArch: core:  9, cta: 2 initialized @(47132,0)
GPGPU-Sim uArch: Shader 13 finished CTA #7 (47273,0), 7 CTAs running
GPGPU-Sim uArch: core: 13, cta: 7 initialized @(47274,0)
GPGPU-Sim uArch: Shader 3 finished CTA #5 (47282,0), 7 CTAs running
GPGPU-Sim uArch: core:  3, cta: 5 initialized @(47283,0)
GPGPU-Sim PTX: 16900000 instructions simulated : ctaid=(160,0,0) tid=(0,41,0)
GPGPU-Sim uArch: cycles simulated: 47500  inst.: 15964010 (ipc=336.1) sim_rate=354755 (inst/sec) elapsed = 0:0:00:45 / Fri Jan 16 06:18:57 2015
GPGPU-Sim PTX: 17000000 instructions simulated : ctaid=(187,0,0) tid=(0,63,0)
GPGPU-Sim uArch: Shader 3 finished CTA #7 (47881,0), 7 CTAs running
GPGPU-Sim uArch: core:  3, cta: 7 initialized @(47882,0)
GPGPU-Sim PTX: 17100000 instructions simulated : ctaid=(215,0,0) tid=(0,34,0)
GPGPU-Sim PTX: 17200000 instructions simulated : ctaid=(192,0,0) tid=(0,124,0)
GPGPU-Sim uArch: Shader 9 finished CTA #6 (48295,0), 7 CTAs running
GPGPU-Sim uArch: core:  9, cta: 6 initialized @(48296,0)
GPGPU-Sim uArch: cycles simulated: 48500  inst.: 16272680 (ipc=335.5) sim_rate=353753 (inst/sec) elapsed = 0:0:00:46 / Fri Jan 16 06:18:58 2015
GPGPU-Sim PTX: 17300000 instructions simulated : ctaid=(176,0,0) tid=(0,116,0)
GPGPU-Sim PTX: 17400000 instructions simulated : ctaid=(216,0,0) tid=(0,122,0)
GPGPU-Sim PTX: 17500000 instructions simulated : ctaid=(152,0,0) tid=(0,81,0)
GPGPU-Sim uArch: Shader 2 finished CTA #1 (49194,0), 7 CTAs running
GPGPU-Sim uArch: core:  2, cta: 1 initialized @(49195,0)
GPGPU-Sim PTX: 17600000 instructions simulated : ctaid=(196,0,0) tid=(0,89,0)
GPGPU-Sim uArch: Shader 7 finished CTA #4 (49407,0), 7 CTAs running
GPGPU-Sim uArch: core:  7, cta: 4 initialized @(49408,0)
GPGPU-Sim uArch: cycles simulated: 49500  inst.: 16598688 (ipc=335.3) sim_rate=353163 (inst/sec) elapsed = 0:0:00:47 / Fri Jan 16 06:18:59 2015
GPGPU-Sim PTX: 17700000 instructions simulated : ctaid=(226,0,0) tid=(0,26,0)
GPGPU-Sim uArch: Shader 4 finished CTA #0 (49697,0), 7 CTAs running
GPGPU-Sim uArch: core:  4, cta: 0 initialized @(49698,0)
GPGPU-Sim PTX: 17800000 instructions simulated : ctaid=(218,0,0) tid=(0,122,0)
GPGPU-Sim PTX: 17900000 instructions simulated : ctaid=(185,0,0) tid=(0,127,0)
GPGPU-Sim uArch: cycles simulated: 50500  inst.: 16923673 (ipc=335.1) sim_rate=352576 (inst/sec) elapsed = 0:0:00:48 / Fri Jan 16 06:19:00 2015
GPGPU-Sim PTX: 18000000 instructions simulated : ctaid=(212,0,0) tid=(0,103,0)
GPGPU-Sim uArch: Shader 10 finished CTA #6 (50588,0), 7 CTAs running
GPGPU-Sim uArch: core: 10, cta: 6 initialized @(50589,0)
GPGPU-Sim uArch: Shader 13 finished CTA #5 (50838,0), 7 CTAs running
GPGPU-Sim uArch: core: 13, cta: 5 initialized @(50839,0)
GPGPU-Sim PTX: 18100000 instructions simulated : ctaid=(193,0,0) tid=(0,67,0)
GPGPU-Sim uArch: Shader 9 finished CTA #3 (51096,0), 7 CTAs running
GPGPU-Sim uArch: core:  9, cta: 3 initialized @(51097,0)
GPGPU-Sim PTX: 18200000 instructions simulated : ctaid=(190,0,0) tid=(0,86,0)
GPGPU-Sim PTX: 18300000 instructions simulated : ctaid=(226,0,0) tid=(0,123,0)
GPGPU-Sim uArch: Shader 5 finished CTA #6 (51430,0), 7 CTAs running
GPGPU-Sim uArch: core:  5, cta: 6 initialized @(51431,0)
GPGPU-Sim uArch: cycles simulated: 51500  inst.: 17248812 (ipc=334.9) sim_rate=352016 (inst/sec) elapsed = 0:0:00:49 / Fri Jan 16 06:19:01 2015
GPGPU-Sim uArch: Shader 1 finished CTA #1 (51694,0), 7 CTAs running
GPGPU-Sim uArch: core:  1, cta: 1 initialized @(51695,0)
GPGPU-Sim PTX: 18400000 instructions simulated : ctaid=(195,0,0) tid=(0,78,0)
GPGPU-Sim uArch: Shader 11 finished CTA #2 (51931,0), 7 CTAs running
GPGPU-Sim uArch: core: 11, cta: 2 initialized @(51932,0)
GPGPU-Sim PTX: 18500000 instructions simulated : ctaid=(207,0,0) tid=(0,106,0)
GPGPU-Sim uArch: Shader 12 finished CTA #7 (52068,0), 7 CTAs running
GPGPU-Sim uArch: core: 12, cta: 7 initialized @(52069,0)
GPGPU-Sim uArch: Shader 9 finished CTA #7 (52097,0), 7 CTAs running
GPGPU-Sim uArch: core:  9, cta: 7 initialized @(52098,0)
GPGPU-Sim uArch: Shader 5 finished CTA #4 (52184,0), 7 CTAs running
GPGPU-Sim uArch: core:  5, cta: 4 initialized @(52185,0)
GPGPU-Sim PTX: 18600000 instructions simulated : ctaid=(229,0,0) tid=(0,117,0)
GPGPU-Sim uArch: Shader 2 finished CTA #2 (52533,0), 7 CTAs running
GPGPU-Sim uArch: core:  2, cta: 2 initialized @(52534,0)
GPGPU-Sim PTX: 18700000 instructions simulated : ctaid=(232,0,0) tid=(0,39,0)
GPGPU-Sim uArch: Shader 9 finished CTA #5 (52671,0), 7 CTAs running
GPGPU-Sim uArch: core:  9, cta: 5 initialized @(52672,0)
GPGPU-Sim uArch: Shader 7 finished CTA #0 (52755,0), 7 CTAs running
GPGPU-Sim uArch: core:  7, cta: 0 initialized @(52756,0)
GPGPU-Sim PTX: 18800000 instructions simulated : ctaid=(197,0,0) tid=(0,99,0)
GPGPU-Sim uArch: cycles simulated: 53000  inst.: 17762752 (ipc=335.1) sim_rate=355255 (inst/sec) elapsed = 0:0:00:50 / Fri Jan 16 06:19:02 2015
GPGPU-Sim PTX: 18900000 instructions simulated : ctaid=(223,0,0) tid=(0,91,0)
GPGPU-Sim PTX: 19000000 instructions simulated : ctaid=(188,0,0) tid=(0,101,0)
GPGPU-Sim uArch: Shader 13 finished CTA #2 (53578,0), 7 CTAs running
GPGPU-Sim uArch: core: 13, cta: 2 initialized @(53579,0)
GPGPU-Sim uArch: Shader 7 finished CTA #7 (53620,0), 7 CTAs running
GPGPU-Sim uArch: core:  7, cta: 7 initialized @(53621,0)
GPGPU-Sim PTX: 19100000 instructions simulated : ctaid=(215,0,0) tid=(0,101,0)
GPGPU-Sim PTX: 19200000 instructions simulated : ctaid=(226,0,0) tid=(0,121,0)
GPGPU-Sim uArch: cycles simulated: 54000  inst.: 18100064 (ipc=335.2) sim_rate=354903 (inst/sec) elapsed = 0:0:00:51 / Fri Jan 16 06:19:03 2015
GPGPU-Sim uArch: Shader 4 finished CTA #7 (54130,0), 7 CTAs running
GPGPU-Sim uArch: core:  4, cta: 7 initialized @(54131,0)
GPGPU-Sim PTX: 19300000 instructions simulated : ctaid=(224,0,0) tid=(0,76,0)
GPGPU-Sim uArch: Shader 0 finished CTA #2 (54265,0), 7 CTAs running
GPGPU-Sim uArch: core:  0, cta: 2 initialized @(54266,0)
GPGPU-Sim uArch: Shader 9 finished CTA #0 (54361,0), 7 CTAs running
GPGPU-Sim uArch: core:  9, cta: 0 initialized @(54362,0)
GPGPU-Sim uArch: Shader 14 finished CTA #4 (54367,0), 7 CTAs running
GPGPU-Sim uArch: core: 14, cta: 4 initialized @(54368,0)
GPGPU-Sim uArch: Shader 4 finished CTA #1 (54436,0), 7 CTAs running
GPGPU-Sim uArch: core:  4, cta: 1 initialized @(54437,0)
GPGPU-Sim PTX: 19400000 instructions simulated : ctaid=(195,0,0) tid=(0,91,0)
GPGPU-Sim uArch: Shader 1 finished CTA #2 (54522,0), 7 CTAs running
GPGPU-Sim uArch: core:  1, cta: 2 initialized @(54523,0)
GPGPU-Sim uArch: Shader 0 finished CTA #3 (54592,0), 7 CTAs running
GPGPU-Sim uArch: core:  0, cta: 3 initialized @(54593,0)
GPGPU-Sim uArch: Shader 8 finished CTA #0 (54633,0), 7 CTAs running
GPGPU-Sim uArch: core:  8, cta: 0 initialized @(54634,0)
GPGPU-Sim PTX: 19500000 instructions simulated : ctaid=(190,0,0) tid=(0,91,0)
GPGPU-Sim uArch: Shader 8 finished CTA #7 (54727,0), 7 CTAs running
GPGPU-Sim uArch: core:  8, cta: 7 initialized @(54728,0)
GPGPU-Sim PTX: 19600000 instructions simulated : ctaid=(226,0,0) tid=(0,122,0)
GPGPU-Sim uArch: cycles simulated: 55000  inst.: 18468420 (ipc=335.8) sim_rate=355161 (inst/sec) elapsed = 0:0:00:52 / Fri Jan 16 06:19:04 2015
GPGPU-Sim PTX: 19700000 instructions simulated : ctaid=(235,0,0) tid=(0,99,0)
GPGPU-Sim PTX: 19800000 instructions simulated : ctaid=(231,0,0) tid=(0,84,0)
GPGPU-Sim uArch: Shader 12 finished CTA #1 (55513,0), 7 CTAs running
GPGPU-Sim uArch: core: 12, cta: 1 initialized @(55514,0)
GPGPU-Sim uArch: Shader 4 finished CTA #3 (55591,0), 7 CTAs running
GPGPU-Sim uArch: core:  4, cta: 3 initialized @(55592,0)
GPGPU-Sim uArch: Shader 6 finished CTA #7 (55642,0), 7 CTAs running
GPGPU-Sim uArch: core:  6, cta: 7 initialized @(55643,0)
GPGPU-Sim uArch: Shader 11 finished CTA #1 (55645,0), 7 CTAs running
GPGPU-Sim uArch: core: 11, cta: 1 initialized @(55646,0)
GPGPU-Sim PTX: 19900000 instructions simulated : ctaid=(254,0,0) tid=(0,103,0)
GPGPU-Sim uArch: Shader 1 finished CTA #0 (55721,0), 7 CTAs running
GPGPU-Sim uArch: core:  1, cta: 0 initialized @(55722,0)
GPGPU-Sim uArch: Shader 14 finished CTA #7 (55811,0), 7 CTAs running
GPGPU-Sim uArch: core: 14, cta: 7 initialized @(55812,0)
GPGPU-Sim PTX: 20000000 instructions simulated : ctaid=(201,0,0) tid=(0,94,0)
GPGPU-Sim uArch: Shader 3 finished CTA #2 (55954,0), 7 CTAs running
GPGPU-Sim uArch: core:  3, cta: 2 initialized @(55955,0)
GPGPU-Sim uArch: cycles simulated: 56000  inst.: 18852249 (ipc=336.6) sim_rate=355702 (inst/sec) elapsed = 0:0:00:53 / Fri Jan 16 06:19:05 2015
GPGPU-Sim PTX: 20100000 instructions simulated : ctaid=(244,0,0) tid=(0,72,0)
GPGPU-Sim uArch: Shader 5 finished CTA #1 (56239,0), 7 CTAs running
GPGPU-Sim uArch: core:  5, cta: 1 initialized @(56240,0)
GPGPU-Sim PTX: 20200000 instructions simulated : ctaid=(198,0,0) tid=(0,127,0)
GPGPU-Sim uArch: cycles simulated: 56500  inst.: 19052869 (ipc=337.2) sim_rate=352830 (inst/sec) elapsed = 0:0:00:54 / Fri Jan 16 06:19:06 2015
GPGPU-Sim PTX: 20300000 instructions simulated : ctaid=(248,0,0) tid=(0,62,0)
GPGPU-Sim uArch: Shader 5 finished CTA #3 (56688,0), 7 CTAs running
GPGPU-Sim uArch: core:  5, cta: 3 initialized @(56689,0)
GPGPU-Sim PTX: 20400000 instructions simulated : ctaid=(226,0,0) tid=(0,107,0)
GPGPU-Sim uArch: Shader 5 finished CTA #7 (57077,0), 7 CTAs running
GPGPU-Sim uArch: core:  5, cta: 7 initialized @(57078,0)
GPGPU-Sim PTX: 20500000 instructions simulated : ctaid=(6,1,0) tid=(0,38,0)
GPGPU-Sim uArch: Shader 4 finished CTA #2 (57209,0), 7 CTAs running
GPGPU-Sim uArch: core:  4, cta: 2 initialized @(57210,0)
GPGPU-Sim uArch: Shader 12 finished CTA #0 (57245,0), 7 CTAs running
GPGPU-Sim uArch: core: 12, cta: 0 initialized @(57246,0)
GPGPU-Sim PTX: 20600000 instructions simulated : ctaid=(254,0,0) tid=(0,98,0)
GPGPU-Sim uArch: cycles simulated: 57500  inst.: 19436922 (ipc=338.0) sim_rate=353398 (inst/sec) elapsed = 0:0:00:55 / Fri Jan 16 06:19:07 2015
GPGPU-Sim uArch: Shader 14 finished CTA #0 (57584,0), 7 CTAs running
GPGPU-Sim uArch: core: 14, cta: 0 initialized @(57585,0)
GPGPU-Sim PTX: 20700000 instructions simulated : ctaid=(248,0,0) tid=(0,85,0)
GPGPU-Sim PTX: 20800000 instructions simulated : ctaid=(11,1,0) tid=(0,100,0)
GPGPU-Sim PTX: 20900000 instructions simulated : ctaid=(194,0,0) tid=(0,100,0)
GPGPU-Sim uArch: Shader 0 finished CTA #1 (58164,0), 7 CTAs running
GPGPU-Sim uArch: core:  0, cta: 1 initialized @(58165,0)
GPGPU-Sim uArch: Shader 10 finished CTA #7 (58228,0), 7 CTAs running
GPGPU-Sim uArch: core: 10, cta: 7 initialized @(58229,0)
GPGPU-Sim PTX: 21000000 instructions simulated : ctaid=(254,0,0) tid=(0,91,0)
GPGPU-Sim uArch: cycles simulated: 58500  inst.: 19791722 (ipc=338.3) sim_rate=353423 (inst/sec) elapsed = 0:0:00:56 / Fri Jan 16 06:19:08 2015
GPGPU-Sim uArch: Shader 13 finished CTA #1 (58623,0), 7 CTAs running
GPGPU-Sim uArch: core: 13, cta: 1 initialized @(58624,0)
GPGPU-Sim PTX: 21100000 instructions simulated : ctaid=(14,1,0) tid=(0,113,0)
GPGPU-Sim uArch: Shader 3 finished CTA #0 (58747,0), 7 CTAs running
GPGPU-Sim uArch: core:  3, cta: 0 initialized @(58748,0)
GPGPU-Sim uArch: Shader 10 finished CTA #2 (58808,0), 7 CTAs running
GPGPU-Sim uArch: core: 10, cta: 2 initialized @(58809,0)
GPGPU-Sim PTX: 21200000 instructions simulated : ctaid=(220,0,0) tid=(0,89,0)
GPGPU-Sim PTX: 21300000 instructions simulated : ctaid=(14,1,0) tid=(0,34,0)
GPGPU-Sim uArch: Shader 0 finished CTA #0 (59321,0), 7 CTAs running
GPGPU-Sim uArch: core:  0, cta: 0 initialized @(59322,0)
GPGPU-Sim uArch: Shader 0 finished CTA #7 (59489,0), 7 CTAs running
GPGPU-Sim uArch: core:  0, cta: 7 initialized @(59490,0)
GPGPU-Sim uArch: cycles simulated: 59500  inst.: 20133693 (ipc=338.4) sim_rate=353222 (inst/sec) elapsed = 0:0:00:57 / Fri Jan 16 06:19:09 2015
GPGPU-Sim PTX: 21400000 instructions simulated : ctaid=(229,0,0) tid=(0,80,0)
GPGPU-Sim uArch: Shader 11 finished CTA #5 (59704,0), 7 CTAs running
GPGPU-Sim uArch: core: 11, cta: 5 initialized @(59705,0)
GPGPU-Sim uArch: Shader 6 finished CTA #2 (59801,0), 7 CTAs running
GPGPU-Sim uArch: core:  6, cta: 2 initialized @(59802,0)
GPGPU-Sim PTX: 21500000 instructions simulated : ctaid=(21,1,0) tid=(0,10,0)
GPGPU-Sim uArch: Shader 6 finished CTA #0 (59995,0), 7 CTAs running
GPGPU-Sim uArch: core:  6, cta: 0 initialized @(59996,0)
GPGPU-Sim PTX: 21600000 instructions simulated : ctaid=(197,0,0) tid=(0,93,0)
GPGPU-Sim uArch: Shader 12 finished CTA #3 (60215,0), 7 CTAs running
GPGPU-Sim uArch: core: 12, cta: 3 initialized @(60216,0)
GPGPU-Sim PTX: 21700000 instructions simulated : ctaid=(207,0,0) tid=(0,105,0)
GPGPU-Sim uArch: cycles simulated: 60500  inst.: 20465998 (ipc=338.3) sim_rate=352862 (inst/sec) elapsed = 0:0:00:58 / Fri Jan 16 06:19:10 2015
GPGPU-Sim PTX: 21800000 instructions simulated : ctaid=(239,0,0) tid=(0,99,0)
GPGPU-Sim PTX: 21900000 instructions simulated : ctaid=(234,0,0) tid=(0,82,0)
GPGPU-Sim uArch: Shader 3 finished CTA #1 (60968,0), 7 CTAs running
GPGPU-Sim uArch: core:  3, cta: 1 initialized @(60969,0)
GPGPU-Sim uArch: Shader 0 finished CTA #4 (61105,0), 7 CTAs running
GPGPU-Sim uArch: core:  0, cta: 4 initialized @(61106,0)
GPGPU-Sim uArch: Shader 11 finished CTA #4 (61179,0), 7 CTAs running
GPGPU-Sim uArch: core: 11, cta: 4 initialized @(61180,0)
GPGPU-Sim PTX: 22000000 instructions simulated : ctaid=(24,1,0) tid=(0,43,0)
GPGPU-Sim uArch: cycles simulated: 61500  inst.: 20778026 (ipc=337.9) sim_rate=352169 (inst/sec) elapsed = 0:0:00:59 / Fri Jan 16 06:19:11 2015
GPGPU-Sim PTX: 22100000 instructions simulated : ctaid=(26,1,0) tid=(0,41,0)
GPGPU-Sim PTX: 22200000 instructions simulated : ctaid=(185,0,0) tid=(0,121,0)
GPGPU-Sim uArch: Shader 13 finished CTA #0 (62041,0), 7 CTAs running
GPGPU-Sim uArch: core: 13, cta: 0 initialized @(62042,0)
GPGPU-Sim PTX: 22300000 instructions simulated : ctaid=(21,1,0) tid=(0,44,0)
GPGPU-Sim uArch: Shader 12 finished CTA #2 (62571,0), 7 CTAs running
GPGPU-Sim uArch: core: 12, cta: 2 initialized @(62572,0)
GPGPU-Sim PTX: 22400000 instructions simulated : ctaid=(234,0,0) tid=(0,122,0)
GPGPU-Sim uArch: Shader 3 finished CTA #3 (62672,0), 7 CTAs running
GPGPU-Sim uArch: core:  3, cta: 3 initialized @(62673,0)
GPGPU-Sim uArch: Shader 1 finished CTA #4 (62787,0), 7 CTAs running
GPGPU-Sim uArch: core:  1, cta: 4 initialized @(62788,0)
GPGPU-Sim PTX: 22500000 instructions simulated : ctaid=(28,1,0) tid=(0,50,0)
GPGPU-Sim uArch: cycles simulated: 63000  inst.: 21187365 (ipc=336.3) sim_rate=353122 (inst/sec) elapsed = 0:0:01:00 / Fri Jan 16 06:19:12 2015
GPGPU-Sim uArch: Shader 14 finished CTA #2 (63069,0), 7 CTAs running
GPGPU-Sim uArch: core: 14, cta: 2 initialized @(63070,0)
GPGPU-Sim PTX: 22600000 instructions simulated : ctaid=(26,1,0) tid=(0,47,0)
GPGPU-Sim PTX: 22700000 instructions simulated : ctaid=(217,0,0) tid=(0,118,0)
GPGPU-Sim uArch: Shader 9 finished CTA #1 (63730,0), 7 CTAs running
GPGPU-Sim uArch: core:  9, cta: 1 initialized @(63731,0)
GPGPU-Sim uArch: Shader 2 finished CTA #7 (63745,0), 7 CTAs running
GPGPU-Sim uArch: core:  2, cta: 7 initialized @(63746,0)
GPGPU-Sim uArch: Shader 7 finished CTA #3 (63898,0), 7 CTAs running
GPGPU-Sim uArch: core:  7, cta: 3 initialized @(63899,0)
GPGPU-Sim uArch: Shader 6 finished CTA #1 (63934,0), 7 CTAs running
GPGPU-Sim uArch: core:  6, cta: 1 initialized @(63935,0)
GPGPU-Sim uArch: cycles simulated: 64000  inst.: 21453428 (ipc=335.2) sim_rate=351695 (inst/sec) elapsed = 0:0:01:01 / Fri Jan 16 06:19:13 2015
GPGPU-Sim PTX: 22800000 instructions simulated : ctaid=(27,1,0) tid=(0,85,0)
GPGPU-Sim PTX: 22900000 instructions simulated : ctaid=(250,0,0) tid=(0,121,0)
GPGPU-Sim uArch: Shader 10 finished CTA #1 (64595,0), 7 CTAs running
GPGPU-Sim uArch: core: 10, cta: 1 initialized @(64596,0)
GPGPU-Sim uArch: Shader 11 finished CTA #3 (64652,0), 7 CTAs running
GPGPU-Sim uArch: core: 11, cta: 3 initialized @(64653,0)
GPGPU-Sim PTX: 23000000 instructions simulated : ctaid=(36,1,0) tid=(0,62,0)
GPGPU-Sim uArch: Shader 5 finished CTA #0 (64752,0), 7 CTAs running
GPGPU-Sim uArch: core:  5, cta: 0 initialized @(64753,0)
GPGPU-Sim uArch: Shader 8 finished CTA #3 (64810,0), 7 CTAs running
GPGPU-Sim uArch: core:  8, cta: 3 initialized @(64811,0)
GPGPU-Sim uArch: cycles simulated: 65000  inst.: 21717822 (ipc=334.1) sim_rate=350287 (inst/sec) elapsed = 0:0:01:02 / Fri Jan 16 06:19:14 2015
GPGPU-Sim PTX: 23100000 instructions simulated : ctaid=(36,1,0) tid=(0,56,0)
GPGPU-Sim uArch: Shader 5 finished CTA #5 (65303,0), 7 CTAs running
GPGPU-Sim uArch: core:  5, cta: 5 initialized @(65304,0)
GPGPU-Sim uArch: Shader 10 finished CTA #0 (65451,0), 7 CTAs running
GPGPU-Sim uArch: core: 10, cta: 0 initialized @(65452,0)
GPGPU-Sim PTX: 23200000 instructions simulated : ctaid=(22,1,0) tid=(0,53,0)
GPGPU-Sim uArch: Shader 6 finished CTA #5 (65801,0), 7 CTAs running
GPGPU-Sim uArch: core:  6, cta: 5 initialized @(65802,0)
GPGPU-Sim uArch: Shader 6 finished CTA #7 (65811,0), 7 CTAs running
GPGPU-Sim uArch: core:  6, cta: 7 initialized @(65812,0)
GPGPU-Sim PTX: 23300000 instructions simulated : ctaid=(248,0,0) tid=(0,125,0)
GPGPU-Sim uArch: cycles simulated: 66000  inst.: 21978331 (ipc=333.0) sim_rate=348862 (inst/sec) elapsed = 0:0:01:03 / Fri Jan 16 06:19:15 2015
GPGPU-Sim PTX: 23400000 instructions simulated : ctaid=(9,1,0) tid=(0,33,0)
GPGPU-Sim uArch: Shader 12 finished CTA #1 (66451,0), 7 CTAs running
GPGPU-Sim uArch: core: 12, cta: 1 initialized @(66452,0)
GPGPU-Sim PTX: 23500000 instructions simulated : ctaid=(39,1,0) tid=(0,56,0)
GPGPU-Sim uArch: Shader 14 finished CTA #1 (66767,0), 7 CTAs running
GPGPU-Sim uArch: core: 14, cta: 1 initialized @(66768,0)
GPGPU-Sim uArch: Shader 2 finished CTA #3 (66961,0), 7 CTAs running
GPGPU-Sim uArch: core:  2, cta: 3 initialized @(66962,0)
GPGPU-Sim uArch: Shader 1 finished CTA #3 (66994,0), 7 CTAs running
GPGPU-Sim uArch: core:  1, cta: 3 initialized @(66995,0)
GPGPU-Sim uArch: cycles simulated: 67000  inst.: 22212688 (ipc=331.5) sim_rate=347073 (inst/sec) elapsed = 0:0:01:04 / Fri Jan 16 06:19:16 2015
GPGPU-Sim PTX: 23600000 instructions simulated : ctaid=(217,0,0) tid=(0,115,0)
GPGPU-Sim uArch: Shader 3 finished CTA #6 (67354,0), 7 CTAs running
GPGPU-Sim uArch: core:  3, cta: 6 initialized @(67355,0)
GPGPU-Sim PTX: 23700000 instructions simulated : ctaid=(45,1,0) tid=(0,98,0)
GPGPU-Sim uArch: Shader 3 finished CTA #4 (67449,0), 7 CTAs running
GPGPU-Sim uArch: core:  3, cta: 4 initialized @(67450,0)
GPGPU-Sim uArch: Shader 5 finished CTA #2 (67664,0), 7 CTAs running
GPGPU-Sim uArch: core:  5, cta: 2 initialized @(67665,0)
GPGPU-Sim PTX: 23800000 instructions simulated : ctaid=(28,1,0) tid=(0,21,0)
GPGPU-Sim uArch: Shader 12 finished CTA #5 (67885,0), 7 CTAs running
GPGPU-Sim uArch: core: 12, cta: 5 initialized @(67886,0)
GPGPU-Sim uArch: Shader 8 finished CTA #1 (68043,0), 7 CTAs running
GPGPU-Sim uArch: core:  8, cta: 1 initialized @(68044,0)
GPGPU-Sim PTX: 23900000 instructions simulated : ctaid=(31,1,0) tid=(0,30,0)
GPGPU-Sim uArch: Shader 13 finished CTA #5 (68357,0), 7 CTAs running
GPGPU-Sim uArch: core: 13, cta: 5 initialized @(68358,0)
GPGPU-Sim uArch: cycles simulated: 68500  inst.: 22568391 (ipc=329.5) sim_rate=347206 (inst/sec) elapsed = 0:0:01:05 / Fri Jan 16 06:19:17 2015
GPGPU-Sim uArch: Shader 4 finished CTA #5 (68593,0), 7 CTAs running
GPGPU-Sim uArch: core:  4, cta: 5 initialized @(68594,0)
GPGPU-Sim PTX: 24000000 instructions simulated : ctaid=(47,1,0) tid=(0,65,0)
GPGPU-Sim uArch: Shader 14 finished CTA #4 (68817,0), 7 CTAs running
GPGPU-Sim uArch: core: 14, cta: 4 initialized @(68818,0)
GPGPU-Sim uArch: Shader 2 finished CTA #6 (68927,0), 7 CTAs running
GPGPU-Sim uArch: core:  2, cta: 6 initialized @(68928,0)
GPGPU-Sim PTX: 24100000 instructions simulated : ctaid=(33,1,0) tid=(0,69,0)
GPGPU-Sim uArch: Shader 9 finished CTA #6 (69042,0), 7 CTAs running
GPGPU-Sim uArch: core:  9, cta: 6 initialized @(69043,0)
GPGPU-Sim uArch: Shader 0 finished CTA #6 (69302,0), 7 CTAs running
GPGPU-Sim uArch: core:  0, cta: 6 initialized @(69303,0)
GPGPU-Sim uArch: Shader 4 finished CTA #6 (69332,0), 7 CTAs running
GPGPU-Sim uArch: core:  4, cta: 6 initialized @(69333,0)
GPGPU-Sim PTX: 24200000 instructions simulated : ctaid=(47,1,0) tid=(0,24,0)
GPGPU-Sim uArch: Shader 2 finished CTA #4 (69413,0), 7 CTAs running
GPGPU-Sim uArch: core:  2, cta: 4 initialized @(69414,0)
GPGPU-Sim uArch: cycles simulated: 69500  inst.: 22813257 (ipc=328.2) sim_rate=345655 (inst/sec) elapsed = 0:0:01:06 / Fri Jan 16 06:19:18 2015
GPGPU-Sim PTX: 24300000 instructions simulated : ctaid=(54,1,0) tid=(0,91,0)
GPGPU-Sim uArch: Shader 7 finished CTA #1 (69843,0), 7 CTAs running
GPGPU-Sim uArch: core:  7, cta: 1 initialized @(69844,0)
[...]
gpgpu_stall_shd_mem[s_mem][bk_conf] = 0
gpgpu_stall_shd_mem[gl_mem][bk_conf] = 0
gpgpu_stall_shd_mem[gl_mem][coal_stall] = 108925
gpgpu_stall_shd_mem[gl_mem][data_port_stall] = 0
gpgpu_stall_shd_mem[g_mem_ld][mshr_rc] = 0
gpgpu_stall_shd_mem[g_mem_ld][icnt_rc] = 0
gpgpu_stall_shd_mem[g_mem_ld][wb_icnt_rc] = 0
gpgpu_stall_shd_mem[g_mem_ld][wb_rsrv_fail] = 0
gpgpu_stall_shd_mem[g_mem_st][mshr_rc] = 0
gpgpu_stall_shd_mem[g_mem_st][icnt_rc] = 0
gpgpu_stall_shd_mem[g_mem_st][wb_icnt_rc] = 0
gpgpu_stall_shd_mem[g_mem_st][wb_rsrv_fail] = 0
gpgpu_stall_shd_mem[l_mem_ld][mshr_rc] = 0
gpgpu_stall_shd_mem[l_mem_ld][icnt_rc] = 0
gpgpu_stall_shd_mem[l_mem_ld][wb_icnt_rc] = 0
gpgpu_stall_shd_mem[l_mem_ld][wb_rsrv_fail] = 0
gpgpu_stall_shd_mem[l_mem_st][mshr_rc] = 0
gpgpu_stall_shd_mem[l_mem_st][icnt_rc] = 0
gpgpu_stall_shd_mem[l_mem_ld][wb_icnt_rc] = 0
gpgpu_stall_shd_mem[l_mem_ld][wb_rsrv_fail] = 0
gpu_reg_bank_conflict_stalls = 0
Warp Occupancy Distribution:
Stall:599590	W0_Idle:125875	W0_Scoreboard:293573	W1:895870	W2:438206	W3:301298	W4:194538	W5:144260	W6:116160	W7:102954	W8:87904	W9:79360	W10:71968	W11:65632	W12:57696	W13:51264	W14:44016	W15:44704	W16:38368	W17:31392	W18:30752	W19:31504	W20:33392	W21:27312	W22:26800	W23:25040	W24:26576	W25:26576	W26:24368	W27:23248	W28:20832	W29:20912	W30:17104	W31:21216	W32:1095296
traffic_breakdown_coretomem[CONST_ACC_R] = 120 {8:15,}
traffic_breakdown_coretomem[GLOBAL_ACC_W] = 2621440 {40:65536,}
traffic_breakdown_coretomem[INST_ACC_R] = 480 {8:60,}
traffic_breakdown_memtocore[CONST_ACC_R] = 1080 {72:15,}
traffic_breakdown_memtocore[GLOBAL_ACC_W] = 524288 {8:65536,}
traffic_breakdown_memtocore[INST_ACC_R] = 8160 {136:60,}
maxmrqlatency = 60 
maxdqlatency = 0 
maxmflatency = 469 
averagemflatency = 169 
max_icnt2mem_latency = 233 
max_icnt2sh_latency = 184899 
mrq_lat_table:644 	92 	245 	109 	104 	33 	0 	0 	0 	0 	0 	0 	0 	0 	0 	0 	0 	0 	0 	0 	0 	0 	0 	0 	0 	0 	0 	0 	0 	0 	0 	0 	
dq_lat_table:0 	0 	0 	0 	0 	0 	0 	0 	0 	0 	0 	0 	0 	0 	0 	0 	0 	0 	0 	0 	0 	0 	0 	0 	0 	0 	0 	0 	0 	0 	0 	0 	
mf_lat_table:0 	0 	0 	0 	0 	0 	0 	64774 	777 	0 	0 	0 	0 	0 	0 	0 	0 	0 	0 	0 	0 	0 	0 	0 	0 	0 	0 	0 	0 	0 	0 	0 	
icnt2mem_lat_table:0 	0 	0 	5881 	15843 	43713 	123 	51 	0 	0 	0 	0 	0 	0 	0 	0 	0 	0 	0 	0 	0 	0 	0 	0 	
icnt2sh_lat_table:0 	0 	0 	2 	13 	0 	0 	0 	0 	0 	0 	704 	1533 	2903 	7212 	18369 	19104 	15711 	0 	0 	0 	0 	0 	0 	
mf_lat_pw_table:0 	0 	0 	0 	0 	0 	0 	351 	3 	0 	0 	0 	0 	0 	0 	0 	0 	0 	0 	0 	0 	0 	0 	0 	0 	0 	0 	0 	0 	0 	0 	0 	
maximum concurrent accesses to same row:
dram[0]:         1         0         0         0         0         0         0         0         0         0         0         0         0         0         0         0 
dram[1]:         0         0         0         0         0         0         0         0         0         0         0         0         0         0         0         0 
dram[2]:         0         0         0         0         0         0         0         0         0         0         0         0         0         0         0         0 
dram[3]:         0         0         0         0         0         0         0         0         0         0         0         0         0         0         0         0 
dram[4]:         0         0         0         0         0         0         0         0         0         0         0         0         0         0         0         0 
dram[5]:         0         0         0         0         0         0         0         0         0         0         0         0         0         0         0         0 
maximum service time to same row:
dram[0]:       342         0         0         0      2482      2501      2649      2651         0         0         0         0         0         0         0         0 
dram[1]:      1372         0         0         0      2479      2497      2646      2649         0         0         0         0         0         0         0         0 
dram[2]:         0         0         0         0      2476      2494      2643      2679         0         0         0         0         0         0         0         0 
dram[3]:         0         0         0         0      2474      2491      2640      2676         0         0         0         0         0         0         0         0 
dram[4]:         0         0         0         0      2507      2488      2653      2660         0         0         0         0         0         0         0         0 
dram[5]:         0         0         0         0      2504      2485      2650      2657         0         0         0         0         0         0         0         0 
average row accesses per activate:
dram[0]:  1.000000      -nan      -nan      -nan 31.000000 29.000000 70.000000 68.000000      -nan      -nan      -nan      -nan      -nan      -nan      -nan      -nan 
dram[1]:  2.000000      -nan      -nan      -nan 31.000000 29.000000 70.000000 68.000000      -nan      -nan      -nan      -nan      -nan      -nan      -nan      -nan 
dram[2]:      -nan      -nan      -nan      -nan 31.000000 38.000000 70.000000 70.000000      -nan      -nan      -nan      -nan      -nan      -nan      -nan      -nan 
dram[3]:      -nan      -nan      -nan      -nan 31.000000 38.000000 70.000000 70.000000      -nan      -nan      -nan      -nan      -nan      -nan      -nan      -nan 
dram[4]:      -nan      -nan      -nan      -nan 29.000000 37.000000 68.000000 70.000000      -nan      -nan      -nan      -nan      -nan      -nan      -nan      -nan 
dram[5]:      -nan      -nan      -nan      -nan 29.000000 37.000000 68.000000 70.000000      -nan      -nan      -nan      -nan      -nan      -nan      -nan      -nan 
average row locality = 1227/28 = 43.821430
number of total memory accesses made:
dram[0]:         0         0         0         0         0         0         0         0         0         0         0         0         0         0         0         0 
dram[1]:         0         0         0         0         0         0         0         0         0         0         0         0         0         0         0         0 
dram[2]:         0         0         0         0         0         0         0         0         0         0         0         0         0         0         0         0 
dram[3]:         0         0         0         0         0         0         0         0         0         0         0         0         0         0         0         0 
dram[4]:         0         0         0         0         0         0         0         0         0         0         0         0         0         0         0         0 
dram[5]:         0         0         0         0         0         0         0         0         0         0         0         0         0         0         0         0 
total accesses: 0
min_bank_accesses = 0!
min_chip_accesses = 0!
number of total read accesses:
dram[0]:         3         0         0         0        10        10        32        32         0         0         0         0         0         0         0         0 
dram[1]:         2         0         0         0        10        10        32        32         0         0         0         0         0         0         0         0 
dram[2]:         0         0         0         0        10        12        32        32         0         0         0         0         0         0         0         0 
dram[3]:         0         0         0         0        10        12        32        32         0         0         0         0         0         0         0         0 
dram[4]:         0         0         0         0        10        12        32        32         0         0         0         0         0         0         0         0 
dram[5]:         0         0         0         0        10        12        32        32         0         0         0         0         0         0         0         0 
total reads: 517
min_bank_accesses = 0!
chip skew: 87/86 = 1.01
number of total write accesses:
dram[0]:         0         0         0         0        21        19        38        36         0         0         0         0         0         0         0         0 
dram[1]:         0         0         0         0        21        19        38        36         0         0         0         0         0         0         0         0 
dram[2]:         0         0         0         0        21        26        38        38         0         0         0         0         0         0         0         0 
dram[3]:         0         0         0         0        21        26        38        38         0         0         0         0         0         0         0         0 
dram[4]:         0         0         0         0        19        25        36        38         0         0         0         0         0         0         0         0 
dram[5]:         0         0         0         0        19        25        36        38         0         0         0         0         0         0         0         0 
total reads: 710
min_bank_accesses = 0!
chip skew: 123/114 = 1.08
average mf latency per bank:
dram[0]:       1300    none      none      none        7143      7615      9994     10133    none      none      none      none      none      none      none      none  
dram[1]:          0    none      none      none        7119      7557      9921     10051    none      none      none      none      none      none      none      none  
dram[2]:     none      none      none      none        7059      7040      9852      9994    none      none      none      none      none      none      none      none  
dram[3]:     none      none      none      none        7001      6989      9771      9923    none      none      none      none      none      none      none      none  
dram[4]:     none      none      none      none        7719      7100     10281      9850    none      none      none      none      none      none      none      none  
dram[5]:     none      none      none      none        7664      7041     10206      9770    none      none      none      none      none      none      none      none  
maximum mf latency per bank:
dram[0]:        278         0         0         0       400       351       375       329         0         0         0         0         0         0         0         0
dram[1]:          0         0         0         0       405       358       402       324         0         0         0         0         0         0         0         0
dram[2]:          0         0         0         0       410       469       393       413         0         0         0         0         0         0         0         0
dram[3]:          0         0         0         0       404       463       386       406         0         0         0         0         0         0         0         0
dram[4]:          0         0         0         0       357       453       335       379         0         0         0         0         0         0         0         0
dram[5]:          0         0         0         0       362       444       326       377         0         0         0         0         0         0         0         0
Memory Partition 0: 
Cache L2_bank_000:
MSHR contents

Cache L2_bank_001:
MSHR contents

In Dram Latency Queue (total = 0): 
DRAM[0]: 16 bks, busW=4 BL=8 CL=12, tRRD=2 tCCD=6, tRCD=12 tRAS=28 tRP=12 tRC=40
n_cmd=244067 n_nop=243770 n_act=7 n_pre=2 n_req=201 n_rd=174 n_write=114 bw_util=0.00236
n_activity=2461 dram_eff=0.2341
bk0: 6a 243995i bk1: 0a 244065i bk2: 0a 244068i bk3: 0a 244068i bk4: 20a 243799i bk5: 20a 243782i bk6: 64a 243368i bk7: 64a 243380i bk8: 0a 244065i bk9: 0a 244065i bk10: 0a 244067i bk11: 0a 244067i bk12: 0a 244067i bk13: 0a 244067i bk14: 0a 244067i bk15: 0a 244067i 
dram_util_bins: 0 0 0 0 0 0 0 0 0 0
dram_eff_bins: 0 0 0 0 0 0 0 0 0 0
mrqq: max=5 avg=0.00478967
Memory Partition 1: 
Cache L2_bank_002:
MSHR contents

Cache L2_bank_003:
MSHR contents

In Dram Latency Queue (total = 0): 
DRAM[1]: 16 bks, busW=4 BL=8 CL=12, tRRD=2 tCCD=6, tRCD=12 tRAS=28 tRP=12 tRC=40
n_cmd=244067 n_nop=243776 n_act=5 n_pre=0 n_req=200 n_rd=172 n_write=114 bw_util=0.002344
n_activity=2372 dram_eff=0.2411
bk0: 4a 244047i bk1: 0a 244067i bk2: 0a 244067i bk3: 0a 244068i bk4: 20a 243809i bk5: 20a 243785i bk6: 64a 243367i bk7: 64a 243382i bk8: 0a 244065i bk9: 0a 244065i bk10: 0a 244067i bk11: 0a 244067i bk12: 0a 244067i bk13: 0a 244067i bk14: 0a 244067i bk15: 0a 244067i 
dram_util_bins: 0 0 0 0 0 0 0 0 0 0
dram_eff_bins: 0 0 0 0 0 0 0 0 0 0
mrqq: max=5 avg=0.00453974
Memory Partition 2: 
Cache L2_bank_004:
MSHR contents

Cache L2_bank_005:
MSHR contents

In Dram Latency Queue (total = 0): 
DRAM[2]: 16 bks, busW=4 BL=8 CL=12, tRRD=2 tCCD=6, tRCD=12 tRAS=28 tRP=12 tRC=40
n_cmd=244067 n_nop=243768 n_act=4 n_pre=0 n_req=209 n_rd=172 n_write=123 bw_util=0.002417
n_activity=2397 dram_eff=0.2461
bk0: 0a 244067i bk1: 0a 244068i bk2: 0a 244069i bk3: 0a 244070i bk4: 20a 243809i bk5: 24a 243706i bk6: 64a 243380i bk7: 64a 243375i bk8: 0a 244064i bk9: 0a 244065i bk10: 0a 244065i bk11: 0a 244066i bk12: 0a 244066i bk13: 0a 244066i bk14: 0a 244067i bk15: 0a 244067i 
dram_util_bins: 0 0 0 0 0 0 0 0 0 0
dram_eff_bins: 0 0 0 0 0 0 0 0 0 0
mrqq: max=6 avg=0.00561731
Memory Partition 3: 
Cache L2_bank_006:
MSHR contents

Cache L2_bank_007:
MSHR contents

In Dram Latency Queue (total = 0): 
DRAM[3]: 16 bks, busW=4 BL=8 CL=12, tRRD=2 tCCD=6, tRCD=12 tRAS=28 tRP=12 tRC=40
n_cmd=244067 n_nop=243768 n_act=4 n_pre=0 n_req=209 n_rd=172 n_write=123 bw_util=0.002417
n_activity=2396 dram_eff=0.2462
bk0: 0a 244067i bk1: 0a 244068i bk2: 0a 244069i bk3: 0a 244070i bk4: 20a 243810i bk5: 24a 243705i bk6: 64a 243378i bk7: 64a 243376i bk8: 0a 244064i bk9: 0a 244065i bk10: 0a 244065i bk11: 0a 244066i bk12: 0a 244066i bk13: 0a 244066i bk14: 0a 244067i bk15: 0a 244067i 
dram_util_bins: 0 0 0 0 0 0 0 0 0 0
dram_eff_bins: 0 0 0 0 0 0 0 0 0 0
mrqq: max=6 avg=0.00566648
Memory Partition 4: 
Cache L2_bank_008:
MSHR contents

Cache L2_bank_009:
MSHR contents

In Dram Latency Queue (total = 0): 
DRAM[4]: 16 bks, busW=4 BL=8 CL=12, tRRD=2 tCCD=6, tRCD=12 tRAS=28 tRP=12 tRC=40
n_cmd=244067 n_nop=243773 n_act=4 n_pre=0 n_req=204 n_rd=172 n_write=118 bw_util=0.002376
n_activity=2377 dram_eff=0.244
bk0: 0a 244067i bk1: 0a 244069i bk2: 0a 244069i bk3: 0a 244069i bk4: 20a 243769i bk5: 24a 243735i bk6: 64a 243366i bk7: 64a 243392i bk8: 0a 244063i bk9: 0a 244065i bk10: 0a 244066i bk11: 0a 244067i bk12: 0a 244067i bk13: 0a 244067i bk14: 0a 244067i bk15: 0a 244067i 
dram_util_bins: 0 0 0 0 0 0 0 0 0 0
dram_eff_bins: 0 0 0 0 0 0 0 0 0 0
mrqq: max=7 avg=0.0056255
Memory Partition 5: 
Cache L2_bank_010:
MSHR contents

Cache L2_bank_011:
MSHR contents

In Dram Latency Queue (total = 0): 
DRAM[5]: 16 bks, busW=4 BL=8 CL=12, tRRD=2 tCCD=6, tRCD=12 tRAS=28 tRP=12 tRC=40
n_cmd=244067 n_nop=243773 n_act=4 n_pre=0 n_req=204 n_rd=172 n_write=118 bw_util=0.002376
n_activity=2377 dram_eff=0.244
bk0: 0a 244067i bk1: 0a 244069i bk2: 0a 244069i bk3: 0a 244069i bk4: 20a 243770i bk5: 24a 243735i bk6: 64a 243367i bk7: 64a 243393i bk8: 0a 244063i bk9: 0a 244065i bk10: 0a 244066i bk11: 0a 244067i bk12: 0a 244067i bk13: 0a 244067i bk14: 0a 244067i bk15: 0a 244067i 
dram_util_bins: 0 0 0 0 0 0 0 0 0 0
dram_eff_bins: 0 0 0 0 0 0 0 0 0 0
mrqq: max=7 avg=0.00562141

========= L2 cache stats =========
L2_cache_bank[0]: Access = 5421, Miss = 45, Miss_rate = 0.008, Pending_hits = 26, Reservation_fails = 512
L2_cache_bank[1]: Access = 5376, Miss = 42, Miss_rate = 0.008, Pending_hits = 13, Reservation_fails = 106
L2_cache_bank[2]: Access = 5406, Miss = 44, Miss_rate = 0.008, Pending_hits = 22, Reservation_fails = 271
L2_cache_bank[3]: Access = 5376, Miss = 42, Miss_rate = 0.008, Pending_hits = 13, Reservation_fails = 106
L2_cache_bank[4]: Access = 5376, Miss = 42, Miss_rate = 0.008, Pending_hits = 17, Reservation_fails = 170
L2_cache_bank[5]: Access = 5632, Miss = 44, Miss_rate = 0.008, Pending_hits = 20, Reservation_fails = 195
L2_cache_bank[6]: Access = 5376, Miss = 42, Miss_rate = 0.008, Pending_hits = 17, Reservation_fails = 171
L2_cache_bank[7]: Access = 5632, Miss = 44, Miss_rate = 0.008, Pending_hits = 20, Reservation_fails = 195
L2_cache_bank[8]: Access = 5376, Miss = 42, Miss_rate = 0.008, Pending_hits = 13, Reservation_fails = 106
L2_cache_bank[9]: Access = 5632, Miss = 44, Miss_rate = 0.008, Pending_hits = 19, Reservation_fails = 170
L2_cache_bank[10]: Access = 5376, Miss = 42, Miss_rate = 0.008, Pending_hits = 13, Reservation_fails = 106
L2_cache_bank[11]: Access = 5632, Miss = 44, Miss_rate = 0.008, Pending_hits = 19, Reservation_fails = 170
L2_total_cache_accesses = 65611
L2_total_cache_misses = 517
L2_total_cache_miss_rate = 0.0079
L2_total_cache_pending_hits = 212
L2_total_cache_reservation_fails = 2278
L2_total_cache_breakdown:
	L2_cache_stats_breakdown[CONST_ACC_R][HIT] = 11
	L2_cache_stats_breakdown[CONST_ACC_R][HIT_RESERVED] = 3
	L2_cache_stats_breakdown[CONST_ACC_R][MISS] = 1
	L2_cache_stats_breakdown[CONST_ACC_R][RESERVATION_FAIL] = 109
	L2_cache_stats_breakdown[GLOBAL_ACC_W][HIT] = 64826
	L2_cache_stats_breakdown[GLOBAL_ACC_W][HIT_RESERVED] = 198
	L2_cache_stats_breakdown[GLOBAL_ACC_W][MISS] = 512
	L2_cache_stats_breakdown[GLOBAL_ACC_W][RESERVATION_FAIL] = 1827
	L2_cache_stats_breakdown[INST_ACC_R][HIT] = 45
	L2_cache_stats_breakdown[INST_ACC_R][HIT_RESERVED] = 11
	L2_cache_stats_breakdown[INST_ACC_R][MISS] = 4
	L2_cache_stats_breakdown[INST_ACC_R][RESERVATION_FAIL] = 342
L2_cache_data_port_util = 0.029
L2_cache_fill_port_util = 0.001

icnt_total_pkts_mem_to_simt=65881
icnt_total_pkts_simt_to_mem=131147
LD_mem_lat_dist  0 0 0 0 0 0 0 0 0 0 0 0 0 0 0 0 0 0 0 0 0 0 0 0 0 0 0
ST_mem_lat_dist  0 0 0 0 0 0 0 0 0 0 0 0 0 0 0 0 0 0 0 0 0 0 0 0 0 0 0
----------------------------Interconnect-DETAILS--------------------------------
Class 0:
Packet latency average = 14.2409
	minimum = 6
	maximum = 119
Network latency average = 9.71246
	minimum = 6
	maximum = 112
Slowest packet = 764
Flit latency average = 10.2207
	minimum = 6
	maximum = 111
Slowest flit = 1511
Fragmentation average = 0
	minimum = 0
	maximum = 0
Injected packet rate average = 0.0262849
	minimum = 0.0221796 (at node 10)
	maximum = 0.0304597 (at node 20)
Accepted packet rate average = 0.0262849
	minimum = 0.0221796 (at node 10)
	maximum = 0.0304597 (at node 20)
Injected flit rate average = 0.0394664
	minimum = 0.0290752 (at node 16)
	maximum = 0.0498702 (at node 3)
Accepted flit rate average= 0.0394664
	minimum = 0.0222769 (at node 10)
	maximum = 0.0609194 (at node 20)
Injected packet length average = 1.50149
Accepted packet length average = 1.50149
Total in-flight flits = 0 (0 measured)
====== Overall Traffic Statistics ======
====== Traffic class 0 ======
Packet latency average = 14.2409 (1 samples)
	minimum = 6 (1 samples)
	maximum = 119 (1 samples)
Network latency average = 9.71246 (1 samples)
	minimum = 6 (1 samples)
	maximum = 112 (1 samples)
Flit latency average = 10.2207 (1 samples)
	minimum = 6 (1 samples)
	maximum = 111 (1 samples)
Fragmentation average = 0 (1 samples)
	minimum = 0 (1 samples)
	maximum = 0 (1 samples)
Injected packet rate average = 0.0262849 (1 samples)
	minimum = 0.0221796 (1 samples)
	maximum = 0.0304597 (1 samples)
Accepted packet rate average = 0.0262849 (1 samples)
	minimum = 0.0221796 (1 samples)
	maximum = 0.0304597 (1 samples)
Injected flit rate average = 0.0394664 (1 samples)
	minimum = 0.0290752 (1 samples)
	maximum = 0.0498702 (1 samples)
Accepted flit rate average = 0.0394664 (1 samples)
	minimum = 0.0222769 (1 samples)
	maximum = 0.0609194 (1 samples)
Injected packet size average = 1.50149 (1 samples)
Accepted packet size average = 1.50149 (1 samples)
Hops average = 1 (1 samples)
----------------------------END-of-Interconnect-DETAILS-------------------------


gpgpu_simulation_time = 0 days, 0 hrs, 2 min, 46 sec (166 sec)
gpgpu_simulation_rate = 316021 (inst/sec)
gpgpu_simulation_rate = 1113 (cycle/sec)
