

        *** GPGPU-Sim Simulator Version 3.2.2  [build 17315] ***


GPGPU-Sim PTX: simulation mode 0 (can change with PTX_SIM_MODE_FUNC environment variable:
               1=functional simulation only, 0=detailed performance simulator)
GPGPU-Sim: Configuration options:

-network_mode                           1 # Interconnection network mode
-inter_config_file   config_fermi_islip.icnt # Interconnection network config file
-gpgpu_ptx_use_cuobjdump                    1 # Use cuobjdump to extract ptx and sass from binaries
-gpgpu_experimental_lib_support                    0 # Try to extract code from cuda libraries [Broken because of unknown cudaGetExportTable]
-gpgpu_ptx_convert_to_ptxplus                    0 # Convert SASS (native ISA) to ptxplus and run ptxplus
-gpgpu_ptx_force_max_capability                   20 # Force maximum compute capability
-gpgpu_ptx_inst_debug_to_file                    0 # Dump executed instructions' debug information to file
-gpgpu_ptx_inst_debug_file       inst_debug.txt # Executed instructions' debug output file
-gpgpu_ptx_inst_debug_thread_uid                    1 # Thread UID for executed instructions' debug output
-gpgpu_simd_model                       1 # 1 = post-dominator
-gpgpu_shader_core_pipeline              1536:32 # shader core pipeline config, i.e., {<nthread>:<warpsize>}
-gpgpu_tex_cache:l1  4:128:24,L:R:m:N,F:128:4,128:2 # per-shader L1 texture cache  (READ-ONLY) config  {<nsets>:<bsize>:<assoc>,<rep>:<wr>:<alloc>:<wr_alloc>,<mshr>:<N>:<merge>,<mq>:<rf>}
-gpgpu_const_cache:l1 64:64:2,L:R:f:N,A:2:32,4 # per-shader L1 constant memory cache  (READ-ONLY) config  {<nsets>:<bsize>:<assoc>,<rep>:<wr>:<alloc>:<wr_alloc>,<mshr>:<N>:<merge>,<mq>} 
-gpgpu_cache:il1     4:128:4,L:R:f:N,A:2:32,4 # shader L1 instruction cache config  {<nsets>:<bsize>:<assoc>,<rep>:<wr>:<alloc>:<wr_alloc>,<mshr>:<N>:<merge>,<mq>} 
-gpgpu_cache:dl1     32:128:4,L:L:m:N,A:32:8,8 # per-shader L1 data cache config  {<nsets>:<bsize>:<assoc>,<rep>:<wr>:<alloc>:<wr_alloc>,<mshr>:<N>:<merge>,<mq> | none}
-gpgpu_cache:dl1PrefL1                 none # per-shader L1 data cache config  {<nsets>:<bsize>:<assoc>,<rep>:<wr>:<alloc>:<wr_alloc>,<mshr>:<N>:<merge>,<mq> | none}
-gpgpu_cache:dl1PreShared                 none # per-shader L1 data cache config  {<nsets>:<bsize>:<assoc>,<rep>:<wr>:<alloc>:<wr_alloc>,<mshr>:<N>:<merge>,<mq> | none}
-gmem_skip_L1D                          0 # global memory access skip L1D cache (implements -Xptxas -dlcm=cg, default=no skip)
-gpgpu_perfect_mem                      0 # enable perfect memory mode (no cache miss)
-n_regfile_gating_group                    4 # group of lanes that should be read/written together)
-gpgpu_clock_gated_reg_file                    0 # enable clock gated reg file for power calculations
-gpgpu_clock_gated_lanes                    0 # enable clock gated lanes for power calculations
-gpgpu_shader_registers                32768 # Number of registers per shader core. Limits number of concurrent CTAs. (default 8192)
-gpgpu_shader_cta                       8 # Maximum number of concurrent CTAs in shader (default 8)
-gpgpu_n_clusters                      15 # number of processing clusters
-gpgpu_n_cores_per_cluster                    1 # number of simd cores per cluster
-gpgpu_n_cluster_ejection_buffer_size                    8 # number of packets in ejection buffer
-gpgpu_n_ldst_response_buffer_size                    2 # number of response packets in ld/st unit ejection buffer
-gpgpu_shmem_size                   16384 # Size of shared memory per shader core (default 16kB)
-gpgpu_shmem_size                   49152 # Size of shared memory per shader core (default 16kB)
-gpgpu_shmem_size_PrefL1                16384 # Size of shared memory per shader core (default 16kB)
-gpgpu_shmem_size_PrefShared                16384 # Size of shared memory per shader core (default 16kB)
-gpgpu_shmem_num_banks                   32 # Number of banks in the shared memory in each shader core (default 16)
-gpgpu_shmem_limited_broadcast                    0 # Limit shared memory to do one broadcast per cycle (default on)
-gpgpu_shmem_warp_parts                    1 # Number of portions a warp is divided into for shared memory bank conflict check 
-gpgpu_warpdistro_shader                   -1 # Specify which shader core to collect the warp size distribution from
-gpgpu_warp_issue_shader                    0 # Specify which shader core to collect the warp issue distribution from
-gpgpu_local_mem_map                    1 # Mapping from local memory space address to simulated GPU physical address space (default = enabled)
-gpgpu_num_reg_banks                   16 # Number of register banks (default = 8)
-gpgpu_reg_bank_use_warp_id                    0 # Use warp ID in mapping registers to banks (default = off)
-gpgpu_operand_collector_num_units_sp                    6 # number of collector units (default = 4)
-gpgpu_operand_collector_num_units_sfu                    8 # number of collector units (default = 4)
-gpgpu_operand_collector_num_units_mem                    2 # number of collector units (default = 2)
-gpgpu_operand_collector_num_units_gen                    0 # number of collector units (default = 0)
-gpgpu_operand_collector_num_in_ports_sp                    2 # number of collector unit in ports (default = 1)
-gpgpu_operand_collector_num_in_ports_sfu                    1 # number of collector unit in ports (default = 1)
-gpgpu_operand_collector_num_in_ports_mem                    1 # number of collector unit in ports (default = 1)
-gpgpu_operand_collector_num_in_ports_gen                    0 # number of collector unit in ports (default = 0)
-gpgpu_operand_collector_num_out_ports_sp                    2 # number of collector unit in ports (default = 1)
-gpgpu_operand_collector_num_out_ports_sfu                    1 # number of collector unit in ports (default = 1)
-gpgpu_operand_collector_num_out_ports_mem                    1 # number of collector unit in ports (default = 1)
-gpgpu_operand_collector_num_out_ports_gen                    0 # number of collector unit in ports (default = 0)
-gpgpu_coalesce_arch                   13 # Coalescing arch (default = 13, anything else is off for now)
-gpgpu_num_sched_per_core                    2 # Number of warp schedulers per core
-gpgpu_max_insn_issue_per_warp                    1 # Max number of instructions that can be issued per warp in one cycle by scheduler
-gpgpu_simt_core_sim_order                    1 # Select the simulation order of cores in a cluster (0=Fix, 1=Round-Robin)
-gpgpu_pipeline_widths        2,1,1,2,1,1,2 # Pipeline widths ID_OC_SP,ID_OC_SFU,ID_OC_MEM,OC_EX_SP,OC_EX_SFU,OC_EX_MEM,EX_WB
-gpgpu_num_sp_units                     2 # Number of SP units (default=1)
-gpgpu_num_sfu_units                    1 # Number of SF units (default=1)
-gpgpu_num_mem_units                    1 # Number if ldst units (default=1) WARNING: not hooked up to anything
-gpgpu_scheduler                      gto # Scheduler configuration: < lrr | gto | two_level_active > If two_level_active:<num_active_warps>:<inner_prioritization>:<outer_prioritization>For complete list of prioritization values see shader.h enum scheduler_prioritization_typeDefault: gto
-gpgpu_dram_scheduler                    1 # 0 = fifo, 1 = FR-FCFS (defaul)
-gpgpu_dram_partition_queues              8:8:8:8 # i2$:$2d:d2$:$2i
-l2_ideal                               0 # Use a ideal L2 cache that always hit
-gpgpu_cache:dl2     64:128:8,L:B:m:W,A:32:4,4:0,32 # unified banked L2 data cache config  {<nsets>:<bsize>:<assoc>,<rep>:<wr>:<alloc>:<wr_alloc>,<mshr>:<N>:<merge>,<mq>}
-gpgpu_cache:dl2_texture_only                    0 # L2 cache used for texture only
-gpgpu_n_mem                            6 # number of memory modules (e.g. memory controllers) in gpu
-gpgpu_n_sub_partition_per_mchannel                    2 # number of memory subpartition in each memory module
-gpgpu_n_mem_per_ctrlr                    2 # number of memory chips per memory controller
-gpgpu_memlatency_stat                   14 # track and display latency statistics 0x2 enables MC, 0x4 enables queue logs
-gpgpu_frfcfs_dram_sched_queue_size                   16 # 0 = unlimited (default); # entries per chip
-gpgpu_dram_return_queue_size                  116 # 0 = unlimited (default); # entries per chip
-gpgpu_dram_buswidth                    4 # default = 4 bytes (8 bytes per cycle at DDR)
-gpgpu_dram_burst_length                    8 # Burst length of each DRAM request (default = 4 data bus cycle)
-dram_data_command_freq_ratio                    4 # Frequency ratio between DRAM data bus and command bus (default = 2 times, i.e. DDR)
-gpgpu_dram_timing_opt nbk=16:CCD=2:RRD=6:RCD=12:RAS=28:RP=12:RC=40: CL=12:WL=4:CDLR=5:WR=12:nbkgrp=4:CCDL=3:RTPL=2 # DRAM timing parameters = {nbk:tCCD:tRRD:tRCD:tRAS:tRP:tRC:CL:WL:tCDLR:tWR:nbkgrp:tCCDL:tRTPL}
-rop_latency                          120 # ROP queue latency (default 85)
-dram_latency                         100 # DRAM latency (default 30)
-gpgpu_mem_addr_mapping dramid@8;00000000.00000000.00000000.00000000.0000RRRR.RRRRRRRR.BBBCCCCB.CCSSSSSS # mapping memory address to dram model {dramid@<start bit>;<memory address map>}
-gpgpu_mem_addr_test                    0 # run sweep test to check address mapping for aliased address
-gpgpu_mem_address_mask                    1 # 0 = old addressing mask, 1 = new addressing mask, 2 = new add. mask + flipped bank sel and chip sel bits
-gpuwattch_xml_file         gpuwattch.xml # GPUWattch XML file
-power_simulation_enabled                    0 # Turn on power simulator (1=On, 0=Off)
-power_per_cycle_dump                    0 # Dump detailed power output each cycle
-power_trace_enabled                    0 # produce a file for the power trace (1=On, 0=Off)
-power_trace_zlevel                     6 # Compression level of the power trace output log (0=no comp, 9=highest)
-steady_power_levels_enabled                    0 # produce a file for the steady power levels (1=On, 0=Off)
-steady_state_definition                  8:4 # allowed deviation:number of samples
-gpgpu_max_cycle                        0 # terminates gpu simulation early (0 = no limit)
-gpgpu_max_insn                         0 # terminates gpu simulation early (0 = no limit)
-gpgpu_max_cta                          0 # terminates gpu simulation early (0 = no limit)
-gpgpu_runtime_stat                   500 # display runtime statistics such as dram utilization {<freq>:<flag>}
-liveness_message_freq                    1 # Minimum number of seconds between simulation liveness messages (0 = always print)
-gpgpu_flush_l1_cache                    0 # Flush L1 cache at the end of each kernel call
-gpgpu_flush_l2_cache                    0 # Flush L2 cache at the end of each kernel call
-gpgpu_deadlock_detect                    1 # Stop the simulation at deadlock (1=on (default), 0=off)
-gpgpu_ptx_instruction_classification                    0 # if enabled will classify ptx instruction types per kernel (Max 255 kernels now)
-gpgpu_ptx_sim_mode                     0 # Select between Performance (default) or Functional simulation (1)
-gpgpu_clock_domains 700.0:700.0:700.0:924.0 # Clock Domain Frequencies in MhZ {<Core Clock>:<ICNT Clock>:<L2 Clock>:<DRAM Clock>}
-gpgpu_max_concurrent_kernel                    8 # maximum kernels that can run concurrently on GPU
-gpgpu_cflog_interval                    0 # Interval between each snapshot in control flow logger
-visualizer_enabled                     0 # Turn on visualizer output (1=On, 0=Off)
-visualizer_outputfile                 NULL # Specifies the output log file for visualizer
-visualizer_zlevel                      6 # Compression level of the visualizer output log (0=no comp, 9=highest)
-trace_enabled                          0 # Turn on traces
-trace_components                    none # comma seperated list of traces to enable. Complete list found in trace_streams.tup. Default none
-trace_sampling_core                    0 # The core which is printed using CORE_DPRINTF. Default 0
-trace_sampling_memory_partition                   -1 # The memory partition which is printed using MEMPART_DPRINTF. Default -1 (i.e. all)
-enable_ptx_file_line_stats                    1 # Turn on PTX source line statistic profiling. (1 = On)
-ptx_line_stats_filename gpgpu_inst_stats.txt # Output file for PTX source line statistics.
-save_embedded_ptx                      0 # saves ptx files embedded in binary as <n>.ptx
-keep                                   0 # keep intermediate files created by GPGPU-Sim when interfacing with external programs
-gpgpu_ptx_save_converted_ptxplus                    0 # Saved converted ptxplus to a file
-ptx_opcode_latency_int         4,13,4,5,145 # Opcode latencies for integers <ADD,MAX,MUL,MAD,DIV>Default 1,1,19,25,145
-ptx_opcode_latency_fp          4,13,4,5,39 # Opcode latencies for single precision floating points <ADD,MAX,MUL,MAD,DIV>Default 1,1,1,1,30
-ptx_opcode_latency_dp         8,19,8,8,330 # Opcode latencies for double precision floating points <ADD,MAX,MUL,MAD,DIV>Default 8,8,8,8,335
-ptx_opcode_initiation_int            1,2,2,1,8 # Opcode initiation intervals for integers <ADD,MAX,MUL,MAD,DIV>Default 1,1,4,4,32
-ptx_opcode_initiation_fp            1,2,1,1,4 # Opcode initiation intervals for single precision floating points <ADD,MAX,MUL,MAD,DIV>Default 1,1,1,1,5
-ptx_opcode_initiation_dp         8,16,8,8,130 # Opcode initiation intervals for double precision floating points <ADD,MAX,MUL,MAD,DIV>Default 8,8,8,8,130
DRAM Timing Options:
nbk                                    16 # number of banks
CCD                                     2 # column to column delay
RRD                                     6 # minimal delay between activation of rows in different banks
RCD                                    12 # row to column delay
RAS                                    28 # time needed to activate row
RP                                     12 # time needed to precharge (deactivate) row
RC                                     40 # row cycle time
CDLR                                    5 # switching from write to read (changes tWTR)
WR                                     12 # last data-in to row precharge
CL                                     12 # CAS latency
WL                                      4 # Write latency
nbkgrp                                  4 # number of bank groups
CCDL                                    3 # column to column delay between accesses to different bank groups
RTPL                                    2 # read to precharge delay between accesses to different bank groups
Total number of memory sub partition = 12
addr_dec_mask[CHIP]  = 0000000000000000 	high:64 low:0
addr_dec_mask[BK]    = 000000000000e100 	high:16 low:8
addr_dec_mask[ROW]   = 000000000fff0000 	high:28 low:16
addr_dec_mask[COL]   = 0000000000001eff 	high:13 low:0
addr_dec_mask[BURST] = 000000000000003f 	high:6 low:0
sub_partition_id_mask = 0000000000000100
GPGPU-Sim uArch: clock freqs: 700000000.000000:700000000.000000:700000000.000000:924000000.000000
GPGPU-Sim uArch: clock periods: 0.00000000142857142857:0.00000000142857142857:0.00000000142857142857:0.00000000108225108225
*** Initializing Memory Statistics ***
GPGPU-Sim uArch: interconnect node map (shaderID+MemID to icntID)
GPGPU-Sim uArch: Memory nodes ID start from index: 15
GPGPU-Sim uArch:    0   1   2   3   4
GPGPU-Sim uArch:    5   6   7   8   9
GPGPU-Sim uArch:   10  11  12  13  14
GPGPU-Sim uArch:   15  16  17  18  19
GPGPU-Sim uArch:   20  21  22  23  24
GPGPU-Sim uArch:   25  26
GPGPU-Sim uArch: interconnect node reverse map (icntID to shaderID+MemID)
GPGPU-Sim uArch: Memory nodes start from ID: 15
GPGPU-Sim uArch:    0   1   2   3   4
GPGPU-Sim uArch:    5   6   7   8   9
GPGPU-Sim uArch:   10  11  12  13  14
GPGPU-Sim uArch:   15  16  17  18  19
GPGPU-Sim uArch:   20  21  22  23  24
GPGPU-Sim uArch:   25  26
35e4989e7e2383a1c0ff536b7ce586fc  /afs/tu-berlin.de/home/t/tobias.fuchs/irb-ubuntu/Dokumente/new4/MCS1415/CUDA/assignment1/gpumcs/gpu_out
GPGPU-Sim uArch: performance model initialization complete.
GPGPU-Sim PTX: __cudaRegisterFatBinary, fat_cubin_handle = 1, filename=gpu_julia.cu
self exe links to: /afs/tu-berlin.de/home/t/tobias.fuchs/irb-ubuntu/Dokumente/new4/MCS1415/CUDA/assignment1/gpumcs/gpu_out
Running md5sum using "md5sum /afs/tu-berlin.de/home/t/tobias.fuchs/irb-ubuntu/Dokumente/new4/MCS1415/CUDA/assignment1/gpumcs/gpu_out "
Running cuobjdump using "$CUDA_INSTALL_PATH/bin/cuobjdump -ptx -elf -sass /afs/tu-berlin.de/home/t/tobias.fuchs/irb-ubuntu/Dokumente/new4/MCS1415/CUDA/assignment1/gpumcs/gpu_out > _cuobjdump_complete_output_oSVjJW"
Parsing file _cuobjdump_complete_output_oSVjJW
######### cuobjdump parser ########
## Adding new section ELF
Adding arch: sm_10
Adding identifier: gpu_julia.cu
## Adding new section PTX
Adding ptx filename: _cuobjdump_1.ptx
Adding arch: sm_10
Adding identifier: gpu_julia.cu
Done parsing!!!
GPGPU-Sim PTX: __cudaRegisterFunction _Z12calc_fractaliiffPh : hostFun 0x0x401073, fat_cubin_handle = 1
GPGPU-Sim PTX: instruction assembly for function '_Z12calc_fractaliiffPh'...   done.
GPGPU-Sim PTX: finding reconvergence points for '_Z12calc_fractaliiffPh'...
GPGPU-Sim PTX: Finding dominators for '_Z12calc_fractaliiffPh'...
GPGPU-Sim PTX: Finding immediate dominators for '_Z12calc_fractaliiffPh'...
GPGPU-Sim PTX: Finding postdominators for '_Z12calc_fractaliiffPh'...
GPGPU-Sim PTX: Finding immediate postdominators for '_Z12calc_fractaliiffPh'...
GPGPU-Sim PTX: pre-decoding instructions for '_Z12calc_fractaliiffPh'...
GPGPU-Sim PTX: reconvergence points for _Z12calc_fractaliiffPh...
GPGPU-Sim PTX:  1 (potential) branch divergence @  PC=0x100 (_1.ptx:101) @%p1 bra $Lt_0_258;
GPGPU-Sim PTX:    immediate post dominator      @  PC=0x158 (_1.ptx:117) ld.param.s32 %r4, [__cudaparm__Z12calc_fractaliiffPh_width];
GPGPU-Sim PTX:  2 (potential) branch divergence @  PC=0x150 (_1.ptx:114) @%p2 bra $Lt_0_2306;
GPGPU-Sim PTX:    immediate post dominator      @  PC=0x158 (_1.ptx:117) ld.param.s32 %r4, [__cudaparm__Z12calc_fractaliiffPh_width];
GPGPU-Sim PTX: ... end of reconvergence points for _Z12calc_fractaliiffPh
GPGPU-Sim PTX: ... done pre-decoding instructions for '_Z12calc_fractaliiffPh'.
GPGPU-Sim PTX: finished parsing EMBEDDED .ptx file _1.ptx
Adding _cuobjdump_1.ptx with cubin handle 1
GPGPU-Sim PTX: extracting embedded .ptx to temporary file "_ptx_octKl8"
Running: cat _ptx_octKl8 | sed 's/.version 1.5/.version 1.4/' | sed 's/, texmode_independent//' | sed 's/\(\.extern \.const\[1\] .b8 \w\+\)\[\]/\1\[1\]/' | sed 's/const\[.\]/const\[0\]/g' > _ptx2_n1Y8Yj
GPGPU-Sim PTX: generating ptxinfo using "$CUDA_INSTALL_PATH/bin/ptxas --gpu-name=sm_20 -v _ptx2_n1Y8Yj --output-file  /dev/null 2> _ptx_octKl8info"
GPGPU-Sim PTX: Kernel '_Z12calc_fractaliiffPh' : regs=9, lmem=0, smem=0, cmem=60
GPGPU-Sim PTX: removing ptxinfo using "rm -f _ptx_octKl8 _ptx2_n1Y8Yj _ptx_octKl8info"
GPGPU-Sim PTX: loading globals with explicit initializers... 
GPGPU-Sim PTX: finished loading globals (0 bytes total).
GPGPU-Sim PTX: loading constants with explicit initializers...  done.

GPGPU-Sim PTX: cudaLaunch for 0x0x401073 (mode=performance simulation) on stream 0
GPGPU-Sim PTX: pushing kernel '_Z12calc_fractaliiffPh' to stream 0, gridDim= (256,16,1) blockDim = (1,16,1) 
kernel '_Z12calc_fractaliiffPh' transfer to GPU hardware scheduler
GPGPU-Sim uArch: Shader 1 bind to kernel 1 '_Z12calc_fractaliiffPh'
GPGPU-Sim uArch: CTA/core = 8, limited by: cta_limit
GPGPU-Sim uArch: core:  1, cta: 0 initialized @(1,0)
GPGPU-Sim uArch: Shader 2 bind to kernel 1 '_Z12calc_fractaliiffPh'
GPGPU-Sim uArch: core:  2, cta: 0 initialized @(1,0)
GPGPU-Sim uArch: Shader 3 bind to kernel 1 '_Z12calc_fractaliiffPh'
GPGPU-Sim uArch: core:  3, cta: 0 initialized @(1,0)
GPGPU-Sim uArch: Shader 4 bind to kernel 1 '_Z12calc_fractaliiffPh'
GPGPU-Sim uArch: core:  4, cta: 0 initialized @(1,0)
GPGPU-Sim uArch: Shader 5 bind to kernel 1 '_Z12calc_fractaliiffPh'
GPGPU-Sim uArch: core:  5, cta: 0 initialized @(1,0)
GPGPU-Sim uArch: Shader 6 bind to kernel 1 '_Z12calc_fractaliiffPh'
GPGPU-Sim uArch: core:  6, cta: 0 initialized @(1,0)
GPGPU-Sim uArch: Shader 7 bind to kernel 1 '_Z12calc_fractaliiffPh'
GPGPU-Sim uArch: core:  7, cta: 0 initialized @(1,0)
GPGPU-Sim uArch: Shader 8 bind to kernel 1 '_Z12calc_fractaliiffPh'
GPGPU-Sim uArch: core:  8, cta: 0 initialized @(1,0)
GPGPU-Sim uArch: Shader 9 bind to kernel 1 '_Z12calc_fractaliiffPh'
GPGPU-Sim uArch: core:  9, cta: 0 initialized @(1,0)
GPGPU-Sim uArch: Shader 10 bind to kernel 1 '_Z12calc_fractaliiffPh'
GPGPU-Sim uArch: core: 10, cta: 0 initialized @(1,0)
GPGPU-Sim uArch: Shader 11 bind to kernel 1 '_Z12calc_fractaliiffPh'
GPGPU-Sim uArch: core: 11, cta: 0 initialized @(1,0)
GPGPU-Sim uArch: Shader 12 bind to kernel 1 '_Z12calc_fractaliiffPh'
GPGPU-Sim uArch: core: 12, cta: 0 initialized @(1,0)
GPGPU-Sim uArch: Shader 13 bind to kernel 1 '_Z12calc_fractaliiffPh'
GPGPU-Sim uArch: core: 13, cta: 0 initialized @(1,0)
GPGPU-Sim uArch: Shader 14 bind to kernel 1 '_Z12calc_fractaliiffPh'
GPGPU-Sim uArch: core: 14, cta: 0 initialized @(1,0)
GPGPU-Sim uArch: Shader 0 bind to kernel 1 '_Z12calc_fractaliiffPh'
GPGPU-Sim uArch: core:  0, cta: 0 initialized @(1,0)
GPGPU-Sim uArch: core:  1, cta: 1 initialized @(2,0)
GPGPU-Sim uArch: core:  2, cta: 1 initialized @(2,0)
GPGPU-Sim uArch: core:  3, cta: 1 initialized @(2,0)
GPGPU-Sim uArch: core:  4, cta: 1 initialized @(2,0)
GPGPU-Sim uArch: core:  5, cta: 1 initialized @(2,0)
GPGPU-Sim uArch: core:  6, cta: 1 initialized @(2,0)
GPGPU-Sim uArch: core:  7, cta: 1 initialized @(2,0)
GPGPU-Sim uArch: core:  8, cta: 1 initialized @(2,0)
GPGPU-Sim uArch: core:  9, cta: 1 initialized @(2,0)
GPGPU-Sim uArch: core: 10, cta: 1 initialized @(2,0)
GPGPU-Sim uArch: core: 11, cta: 1 initialized @(2,0)
GPGPU-Sim uArch: core: 12, cta: 1 initialized @(2,0)
GPGPU-Sim uArch: core: 13, cta: 1 initialized @(2,0)
GPGPU-Sim uArch: core: 14, cta: 1 initialized @(2,0)
GPGPU-Sim uArch: core:  0, cta: 1 initialized @(2,0)
GPGPU-Sim uArch: core:  1, cta: 2 initialized @(3,0)
GPGPU-Sim uArch: core:  2, cta: 2 initialized @(3,0)
GPGPU-Sim uArch: core:  3, cta: 2 initialized @(3,0)
GPGPU-Sim uArch: core:  4, cta: 2 initialized @(3,0)
GPGPU-Sim uArch: core:  5, cta: 2 initialized @(3,0)
GPGPU-Sim uArch: core:  6, cta: 2 initialized @(3,0)
GPGPU-Sim uArch: core:  7, cta: 2 initialized @(3,0)
GPGPU-Sim uArch: core:  8, cta: 2 initialized @(3,0)
GPGPU-Sim uArch: core:  9, cta: 2 initialized @(3,0)
GPGPU-Sim uArch: core: 10, cta: 2 initialized @(3,0)
GPGPU-Sim uArch: core: 11, cta: 2 initialized @(3,0)
GPGPU-Sim uArch: core: 12, cta: 2 initialized @(3,0)
GPGPU-Sim uArch: core: 13, cta: 2 initialized @(3,0)
GPGPU-Sim uArch: core: 14, cta: 2 initialized @(3,0)
GPGPU-Sim uArch: core:  0, cta: 2 initialized @(3,0)
GPGPU-Sim uArch: core:  1, cta: 3 initialized @(4,0)
GPGPU-Sim uArch: core:  2, cta: 3 initialized @(4,0)
GPGPU-Sim uArch: core:  3, cta: 3 initialized @(4,0)
GPGPU-Sim uArch: core:  4, cta: 3 initialized @(4,0)
GPGPU-Sim uArch: core:  5, cta: 3 initialized @(4,0)
GPGPU-Sim uArch: core:  6, cta: 3 initialized @(4,0)
GPGPU-Sim uArch: core:  7, cta: 3 initialized @(4,0)
GPGPU-Sim uArch: core:  8, cta: 3 initialized @(4,0)
GPGPU-Sim uArch: core:  9, cta: 3 initialized @(4,0)
GPGPU-Sim uArch: core: 10, cta: 3 initialized @(4,0)
GPGPU-Sim uArch: core: 11, cta: 3 initialized @(4,0)
GPGPU-Sim uArch: core: 12, cta: 3 initialized @(4,0)
GPGPU-Sim uArch: core: 13, cta: 3 initialized @(4,0)
GPGPU-Sim uArch: core: 14, cta: 3 initialized @(4,0)
GPGPU-Sim uArch: core:  0, cta: 3 initialized @(4,0)
GPGPU-Sim uArch: core:  1, cta: 4 initialized @(5,0)
GPGPU-Sim uArch: core:  2, cta: 4 initialized @(5,0)
GPGPU-Sim uArch: core:  3, cta: 4 initialized @(5,0)
GPGPU-Sim uArch: core:  4, cta: 4 initialized @(5,0)
GPGPU-Sim uArch: core:  5, cta: 4 initialized @(5,0)
GPGPU-Sim uArch: core:  6, cta: 4 initialized @(5,0)
GPGPU-Sim uArch: core:  7, cta: 4 initialized @(5,0)
GPGPU-Sim uArch: core:  8, cta: 4 initialized @(5,0)
GPGPU-Sim uArch: core:  9, cta: 4 initialized @(5,0)
GPGPU-Sim uArch: core: 10, cta: 4 initialized @(5,0)
GPGPU-Sim uArch: core: 11, cta: 4 initialized @(5,0)
GPGPU-Sim uArch: core: 12, cta: 4 initialized @(5,0)
GPGPU-Sim uArch: core: 13, cta: 4 initialized @(5,0)
GPGPU-Sim uArch: core: 14, cta: 4 initialized @(5,0)
GPGPU-Sim uArch: core:  0, cta: 4 initialized @(5,0)
GPGPU-Sim uArch: core:  1, cta: 5 initialized @(6,0)
GPGPU-Sim uArch: core:  2, cta: 5 initialized @(6,0)
GPGPU-Sim uArch: core:  3, cta: 5 initialized @(6,0)
GPGPU-Sim uArch: core:  4, cta: 5 initialized @(6,0)
GPGPU-Sim uArch: core:  5, cta: 5 initialized @(6,0)
GPGPU-Sim uArch: core:  6, cta: 5 initialized @(6,0)
GPGPU-Sim uArch: core:  7, cta: 5 initialized @(6,0)
GPGPU-Sim uArch: core:  8, cta: 5 initialized @(6,0)
GPGPU-Sim uArch: core:  9, cta: 5 initialized @(6,0)
GPGPU-Sim uArch: core: 10, cta: 5 initialized @(6,0)
GPGPU-Sim uArch: core: 11, cta: 5 initialized @(6,0)
GPGPU-Sim uArch: core: 12, cta: 5 initialized @(6,0)
GPGPU-Sim uArch: core: 13, cta: 5 initialized @(6,0)
GPGPU-Sim uArch: core: 14, cta: 5 initialized @(6,0)
GPGPU-Sim uArch: core:  0, cta: 5 initialized @(6,0)
GPGPU-Sim uArch: core:  1, cta: 6 initialized @(7,0)
GPGPU-Sim uArch: core:  2, cta: 6 initialized @(7,0)
GPGPU-Sim uArch: core:  3, cta: 6 initialized @(7,0)
GPGPU-Sim uArch: core:  4, cta: 6 initialized @(7,0)
GPGPU-Sim uArch: core:  5, cta: 6 initialized @(7,0)
GPGPU-Sim uArch: core:  6, cta: 6 initialized @(7,0)
GPGPU-Sim uArch: core:  7, cta: 6 initialized @(7,0)
GPGPU-Sim uArch: core:  8, cta: 6 initialized @(7,0)
GPGPU-Sim uArch: core:  9, cta: 6 initialized @(7,0)
GPGPU-Sim uArch: core: 10, cta: 6 initialized @(7,0)
GPGPU-Sim uArch: core: 11, cta: 6 initialized @(7,0)
GPGPU-Sim uArch: core: 12, cta: 6 initialized @(7,0)
GPGPU-Sim uArch: core: 13, cta: 6 initialized @(7,0)
GPGPU-Sim uArch: core: 14, cta: 6 initialized @(7,0)
GPGPU-Sim uArch: core:  0, cta: 6 initialized @(7,0)
GPGPU-Sim uArch: core:  1, cta: 7 initialized @(8,0)
GPGPU-Sim uArch: core:  2, cta: 7 initialized @(8,0)
GPGPU-Sim uArch: core:  3, cta: 7 initialized @(8,0)
GPGPU-Sim uArch: core:  4, cta: 7 initialized @(8,0)
GPGPU-Sim uArch: core:  5, cta: 7 initialized @(8,0)
GPGPU-Sim uArch: core:  6, cta: 7 initialized @(8,0)
GPGPU-Sim uArch: core:  7, cta: 7 initialized @(8,0)
GPGPU-Sim uArch: core:  8, cta: 7 initialized @(8,0)
GPGPU-Sim uArch: core:  9, cta: 7 initialized @(8,0)
GPGPU-Sim uArch: core: 10, cta: 7 initialized @(8,0)
GPGPU-Sim uArch: core: 11, cta: 7 initialized @(8,0)
GPGPU-Sim uArch: core: 12, cta: 7 initialized @(8,0)
GPGPU-Sim uArch: core: 13, cta: 7 initialized @(8,0)
GPGPU-Sim uArch: core: 14, cta: 7 initialized @(8,0)
GPGPU-Sim uArch: core:  0, cta: 7 initialized @(8,0)
GPGPU-Sim uArch: cycles simulated: 500  inst.: 15360 (ipc=30.7) sim_rate=15360 (inst/sec) elapsed = 0:0:00:01 / Fri Jan 16 06:06:28 2015
GPGPU-Sim PTX: 100000 instructions simulated : ctaid=(88,0,0) tid=(0,15,0)
GPGPU-Sim PTX: 200000 instructions simulated : ctaid=(42,0,0) tid=(0,0,0)
GPGPU-Sim PTX: 300000 instructions simulated : ctaid=(63,0,0) tid=(0,7,0)
GPGPU-Sim uArch: Shader 4 finished CTA #0 (2347,0), 7 CTAs running
GPGPU-Sim uArch: core:  4, cta: 0 initialized @(2348,0)
GPGPU-Sim uArch: Shader 0 finished CTA #0 (2365,0), 7 CTAs running
GPGPU-Sim uArch: core:  0, cta: 0 initialized @(2366,0)
GPGPU-Sim uArch: Shader 2 finished CTA #0 (2368,0), 7 CTAs running
GPGPU-Sim uArch: core:  2, cta: 0 initialized @(2369,0)
GPGPU-Sim uArch: Shader 5 finished CTA #0 (2371,0), 7 CTAs running
GPGPU-Sim uArch: core:  5, cta: 0 initialized @(2372,0)
GPGPU-Sim uArch: Shader 4 finished CTA #1 (2374,0), 7 CTAs running
GPGPU-Sim uArch: core:  4, cta: 1 initialized @(2375,0)
GPGPU-Sim uArch: Shader 1 finished CTA #0 (2376,0), 7 CTAs running
GPGPU-Sim uArch: core:  1, cta: 0 initialized @(2377,0)
GPGPU-Sim uArch: Shader 6 finished CTA #0 (2379,0), 7 CTAs running
GPGPU-Sim uArch: core:  6, cta: 0 initialized @(2380,0)
GPGPU-Sim uArch: Shader 7 finished CTA #0 (2380,0), 7 CTAs running
GPGPU-Sim uArch: core:  7, cta: 0 initialized @(2381,0)
GPGPU-Sim uArch: Shader 8 finished CTA #0 (2385,0), 7 CTAs running
GPGPU-Sim uArch: core:  8, cta: 0 initialized @(2386,0)
GPGPU-Sim uArch: Shader 3 finished CTA #0 (2386,0), 7 CTAs running
GPGPU-Sim uArch: core:  3, cta: 0 initialized @(2387,0)
GPGPU-Sim uArch: Shader 10 finished CTA #0 (2387,0), 7 CTAs running
GPGPU-Sim uArch: core: 10, cta: 0 initialized @(2388,0)
GPGPU-Sim uArch: Shader 5 finished CTA #1 (2397,0), 7 CTAs running
GPGPU-Sim uArch: core:  5, cta: 1 initialized @(2398,0)
GPGPU-Sim uArch: Shader 9 finished CTA #0 (2406,0), 7 CTAs running
GPGPU-Sim uArch: core:  9, cta: 0 initialized @(2407,0)
GPGPU-Sim uArch: Shader 11 finished CTA #0 (2409,0), 7 CTAs running
GPGPU-Sim uArch: core: 11, cta: 0 initialized @(2410,0)
GPGPU-Sim uArch: Shader 12 finished CTA #0 (2413,0), 7 CTAs running
GPGPU-Sim uArch: Shader 13 finished CTA #0 (2413,0), 7 CTAs running
GPGPU-Sim uArch: core: 12, cta: 0 initialized @(2414,0)
GPGPU-Sim uArch: core: 13, cta: 0 initialized @(2414,0)
GPGPU-Sim uArch: Shader 14 finished CTA #0 (2415,0), 7 CTAs running
GPGPU-Sim uArch: core: 14, cta: 0 initialized @(2416,0)
GPGPU-Sim uArch: Shader 0 finished CTA #1 (2418,0), 7 CTAs running
GPGPU-Sim uArch: core:  0, cta: 1 initialized @(2419,0)
GPGPU-Sim uArch: Shader 1 finished CTA #1 (2419,0), 7 CTAs running
GPGPU-Sim uArch: core:  1, cta: 1 initialized @(2420,0)
GPGPU-Sim uArch: Shader 2 finished CTA #1 (2422,0), 7 CTAs running
GPGPU-Sim uArch: core:  2, cta: 1 initialized @(2423,0)
GPGPU-Sim uArch: Shader 3 finished CTA #1 (2423,0), 7 CTAs running
GPGPU-Sim uArch: core:  3, cta: 1 initialized @(2424,0)
GPGPU-Sim uArch: Shader 6 finished CTA #1 (2425,0), 7 CTAs running
GPGPU-Sim uArch: core:  6, cta: 1 initialized @(2426,0)
GPGPU-Sim uArch: Shader 7 finished CTA #1 (2427,0), 7 CTAs running
GPGPU-Sim uArch: core:  7, cta: 1 initialized @(2428,0)
GPGPU-Sim uArch: Shader 8 finished CTA #1 (2430,0), 7 CTAs running
GPGPU-Sim uArch: core:  8, cta: 1 initialized @(2431,0)
GPGPU-Sim uArch: Shader 10 finished CTA #1 (2433,0), 7 CTAs running
GPGPU-Sim uArch: core: 10, cta: 1 initialized @(2434,0)
GPGPU-Sim uArch: Shader 9 finished CTA #1 (2519,0), 7 CTAs running
GPGPU-Sim uArch: core:  9, cta: 1 initialized @(2520,0)
GPGPU-Sim uArch: Shader 11 finished CTA #1 (2522,0), 7 CTAs running
GPGPU-Sim uArch: core: 11, cta: 1 initialized @(2523,0)
GPGPU-Sim uArch: Shader 12 finished CTA #1 (2523,0), 7 CTAs running
GPGPU-Sim uArch: core: 12, cta: 1 initialized @(2524,0)
GPGPU-Sim uArch: Shader 13 finished CTA #1 (2525,0), 7 CTAs running
GPGPU-Sim uArch: core: 13, cta: 1 initialized @(2526,0)
GPGPU-Sim uArch: Shader 14 finished CTA #1 (2527,0), 7 CTAs running
GPGPU-Sim uArch: core: 14, cta: 1 initialized @(2528,0)
GPGPU-Sim uArch: Shader 1 finished CTA #2 (2529,0), 7 CTAs running
GPGPU-Sim uArch: core:  1, cta: 2 initialized @(2530,0)
GPGPU-Sim PTX: 400000 instructions simulated : ctaid=(138,0,0) tid=(0,4,0)
GPGPU-Sim uArch: Shader 13 finished CTA #4 (2913,0), 7 CTAs running
GPGPU-Sim uArch: core: 13, cta: 4 initialized @(2914,0)
GPGPU-Sim uArch: cycles simulated: 3000  inst.: 442032 (ipc=147.3) sim_rate=221016 (inst/sec) elapsed = 0:0:00:02 / Fri Jan 16 06:06:30 2015
GPGPU-Sim uArch: Shader 14 finished CTA #4 (3003,0), 7 CTAs running
GPGPU-Sim uArch: core: 14, cta: 4 initialized @(3004,0)
GPGPU-Sim uArch: Shader 12 finished CTA #4 (3056,0), 7 CTAs running
GPGPU-Sim uArch: core: 12, cta: 4 initialized @(3057,0)
GPGPU-Sim PTX: 500000 instructions simulated : ctaid=(57,0,0) tid=(0,13,0)
GPGPU-Sim uArch: Shader 11 finished CTA #4 (3155,0), 7 CTAs running
GPGPU-Sim uArch: core: 11, cta: 4 initialized @(3156,0)
GPGPU-Sim PTX: 600000 instructions simulated : ctaid=(152,0,0) tid=(0,13,0)
GPGPU-Sim uArch: Shader 10 finished CTA #2 (3581,0), 7 CTAs running
GPGPU-Sim uArch: core: 10, cta: 2 initialized @(3582,0)
GPGPU-Sim uArch: Shader 4 finished CTA #2 (3592,0), 7 CTAs running
GPGPU-Sim uArch: core:  4, cta: 2 initialized @(3593,0)
GPGPU-Sim PTX: 700000 instructions simulated : ctaid=(147,0,0) tid=(0,4,0)
GPGPU-Sim uArch: Shader 3 finished CTA #2 (4000,0), 7 CTAs running
GPGPU-Sim uArch: core:  3, cta: 2 initialized @(4001,0)
GPGPU-Sim uArch: Shader 7 finished CTA #2 (4097,0), 7 CTAs running
GPGPU-Sim uArch: core:  7, cta: 2 initialized @(4098,0)
GPGPU-Sim PTX: 800000 instructions simulated : ctaid=(154,0,0) tid=(0,6,0)
GPGPU-Sim uArch: cycles simulated: 4500  inst.: 767309 (ipc=170.5) sim_rate=255769 (inst/sec) elapsed = 0:0:00:03 / Fri Jan 16 06:06:31 2015
GPGPU-Sim PTX: 900000 instructions simulated : ctaid=(41,0,0) tid=(0,15,0)
GPGPU-Sim uArch: Shader 1 finished CTA #2 (5331,0), 7 CTAs running
GPGPU-Sim uArch: core:  1, cta: 2 initialized @(5332,0)
GPGPU-Sim uArch: Shader 14 finished CTA #1 (5350,0), 7 CTAs running
GPGPU-Sim uArch: core: 14, cta: 1 initialized @(5351,0)
GPGPU-Sim uArch: Shader 12 finished CTA #1 (5399,0), 7 CTAs running
GPGPU-Sim uArch: core: 12, cta: 1 initialized @(5400,0)
GPGPU-Sim PTX: 1000000 instructions simulated : ctaid=(86,0,0) tid=(0,2,0)
GPGPU-Sim uArch: Shader 13 finished CTA #1 (5427,0), 7 CTAs running
GPGPU-Sim uArch: core: 13, cta: 1 initialized @(5428,0)
GPGPU-Sim uArch: Shader 11 finished CTA #1 (5439,0), 7 CTAs running
GPGPU-Sim uArch: core: 11, cta: 1 initialized @(5440,0)
GPGPU-Sim uArch: Shader 9 finished CTA #1 (5533,0), 7 CTAs running
GPGPU-Sim uArch: core:  9, cta: 1 initialized @(5534,0)
GPGPU-Sim uArch: Shader 10 finished CTA #1 (5557,0), 7 CTAs running
GPGPU-Sim uArch: core: 10, cta: 1 initialized @(5558,0)
GPGPU-Sim uArch: Shader 13 finished CTA #4 (5572,0), 7 CTAs running
GPGPU-Sim uArch: core: 13, cta: 4 initialized @(5573,0)
GPGPU-Sim uArch: Shader 12 finished CTA #4 (5632,0), 7 CTAs running
GPGPU-Sim uArch: core: 12, cta: 4 initialized @(5633,0)
GPGPU-Sim uArch: Shader 14 finished CTA #4 (5678,0), 7 CTAs running
GPGPU-Sim uArch: core: 14, cta: 4 initialized @(5679,0)
GPGPU-Sim uArch: Shader 2 finished CTA #3 (5703,0), 7 CTAs running
GPGPU-Sim uArch: core:  2, cta: 3 initialized @(5704,0)
GPGPU-Sim uArch: Shader 11 finished CTA #4 (5757,0), 7 CTAs running
GPGPU-Sim uArch: core: 11, cta: 4 initialized @(5758,0)
GPGPU-Sim uArch: Shader 2 finished CTA #2 (5769,0), 7 CTAs running
GPGPU-Sim uArch: core:  2, cta: 2 initialized @(5770,0)
GPGPU-Sim uArch: Shader 5 finished CTA #4 (5840,0), 7 CTAs running
GPGPU-Sim uArch: core:  5, cta: 4 initialized @(5841,0)
GPGPU-Sim uArch: Shader 12 finished CTA #3 (5995,0), 7 CTAs running
GPGPU-Sim uArch: core: 12, cta: 3 initialized @(5996,0)
GPGPU-Sim uArch: cycles simulated: 6000  inst.: 1034048 (ipc=172.3) sim_rate=258512 (inst/sec) elapsed = 0:0:00:04 / Fri Jan 16 06:06:32 2015
GPGPU-Sim PTX: 1100000 instructions simulated : ctaid=(123,0,0) tid=(0,1,0)
GPGPU-Sim uArch: Shader 0 finished CTA #3 (6117,0), 7 CTAs running
GPGPU-Sim uArch: core:  0, cta: 3 initialized @(6118,0)
GPGPU-Sim uArch: Shader 8 finished CTA #2 (6175,0), 7 CTAs running
GPGPU-Sim uArch: core:  8, cta: 2 initialized @(6176,0)
GPGPU-Sim uArch: Shader 10 finished CTA #2 (6202,0), 7 CTAs running
GPGPU-Sim uArch: core: 10, cta: 2 initialized @(6203,0)
GPGPU-Sim uArch: Shader 4 finished CTA #2 (6224,0), 7 CTAs running
GPGPU-Sim uArch: core:  4, cta: 2 initialized @(6225,0)
GPGPU-Sim uArch: Shader 9 finished CTA #2 (6241,0), 7 CTAs running
GPGPU-Sim uArch: core:  9, cta: 2 initialized @(6242,0)
GPGPU-Sim PTX: 1200000 instructions simulated : ctaid=(117,0,0) tid=(0,8,0)
GPGPU-Sim uArch: Shader 3 finished CTA #2 (6617,0), 7 CTAs running
GPGPU-Sim uArch: core:  3, cta: 2 initialized @(6618,0)
GPGPU-Sim uArch: Shader 7 finished CTA #2 (6725,0), 7 CTAs running
GPGPU-Sim uArch: core:  7, cta: 2 initialized @(6726,0)
GPGPU-Sim PTX: 1300000 instructions simulated : ctaid=(134,0,0) tid=(0,12,0)
GPGPU-Sim uArch: Shader 3 finished CTA #3 (7249,0), 7 CTAs running
GPGPU-Sim uArch: core:  3, cta: 3 initialized @(7250,0)
GPGPU-Sim uArch: Shader 5 finished CTA #2 (7407,0), 7 CTAs running
GPGPU-Sim uArch: core:  5, cta: 2 initialized @(7408,0)
GPGPU-Sim uArch: Shader 1 finished CTA #7 (7450,0), 7 CTAs running
GPGPU-Sim uArch: core:  1, cta: 7 initialized @(7451,0)
GPGPU-Sim uArch: Shader 10 finished CTA #3 (7479,0), 7 CTAs running
GPGPU-Sim uArch: core: 10, cta: 3 initialized @(7480,0)
GPGPU-Sim uArch: Shader 4 finished CTA #4 (7636,0), 7 CTAs running
GPGPU-Sim uArch: core:  4, cta: 4 initialized @(7637,0)
GPGPU-Sim uArch: Shader 2 finished CTA #7 (7665,0), 7 CTAs running
GPGPU-Sim uArch: core:  2, cta: 7 initialized @(7666,0)
GPGPU-Sim uArch: Shader 1 finished CTA #3 (7697,0), 7 CTAs running
GPGPU-Sim uArch: core:  1, cta: 3 initialized @(7698,0)
GPGPU-Sim uArch: Shader 12 finished CTA #1 (7825,0), 7 CTAs running
GPGPU-Sim uArch: core: 12, cta: 1 initialized @(7826,0)
GPGPU-Sim uArch: Shader 2 finished CTA #4 (7856,0), 7 CTAs running
GPGPU-Sim uArch: core:  2, cta: 4 initialized @(7857,0)
GPGPU-Sim PTX: 1400000 instructions simulated : ctaid=(125,0,0) tid=(0,11,0)
GPGPU-Sim uArch: Shader 14 finished CTA #1 (7933,0), 7 CTAs running
GPGPU-Sim uArch: core: 14, cta: 1 initialized @(7934,0)
GPGPU-Sim uArch: Shader 1 finished CTA #2 (7938,0), 7 CTAs running
GPGPU-Sim uArch: core:  1, cta: 2 initialized @(7939,0)
GPGPU-Sim uArch: Shader 13 finished CTA #1 (7957,0), 7 CTAs running
GPGPU-Sim uArch: core: 13, cta: 1 initialized @(7958,0)
GPGPU-Sim uArch: Shader 11 finished CTA #1 (7997,0), 7 CTAs running
GPGPU-Sim uArch: core: 11, cta: 1 initialized @(7998,0)
GPGPU-Sim uArch: cycles simulated: 8000  inst.: 1335523 (ipc=166.9) sim_rate=267104 (inst/sec) elapsed = 0:0:00:05 / Fri Jan 16 06:06:33 2015
GPGPU-Sim uArch: Shader 9 finished CTA #1 (8017,0), 7 CTAs running
GPGPU-Sim uArch: core:  9, cta: 1 initialized @(8018,0)
GPGPU-Sim uArch: Shader 10 finished CTA #1 (8043,0), 7 CTAs running
GPGPU-Sim uArch: core: 10, cta: 1 initialized @(8044,0)
GPGPU-Sim uArch: Shader 13 finished CTA #4 (8076,0), 7 CTAs running
GPGPU-Sim uArch: core: 13, cta: 4 initialized @(8077,0)
GPGPU-Sim uArch: Shader 14 finished CTA #3 (8108,0), 7 CTAs running
GPGPU-Sim uArch: core: 14, cta: 3 initialized @(8109,0)
GPGPU-Sim uArch: Shader 12 finished CTA #4 (8137,0), 7 CTAs running
GPGPU-Sim uArch: core: 12, cta: 4 initialized @(8138,0)
GPGPU-Sim uArch: Shader 14 finished CTA #4 (8157,0), 7 CTAs running
GPGPU-Sim uArch: core: 14, cta: 4 initialized @(8158,0)
GPGPU-Sim uArch: Shader 2 finished CTA #3 (8182,0), 7 CTAs running
GPGPU-Sim uArch: core:  2, cta: 3 initialized @(8183,0)
GPGPU-Sim uArch: Shader 2 finished CTA #2 (8246,0), 7 CTAs running
GPGPU-Sim uArch: core:  2, cta: 2 initialized @(8247,0)
GPGPU-Sim uArch: Shader 5 finished CTA #4 (8293,0), 7 CTAs running
GPGPU-Sim uArch: core:  5, cta: 4 initialized @(8294,0)
GPGPU-Sim uArch: Shader 11 finished CTA #4 (8300,0), 7 CTAs running
GPGPU-Sim uArch: core: 11, cta: 4 initialized @(8301,0)
GPGPU-Sim uArch: Shader 12 finished CTA #3 (8492,0), 7 CTAs running
GPGPU-Sim uArch: core: 12, cta: 3 initialized @(8493,0)
GPGPU-Sim uArch: Shader 0 finished CTA #6 (8505,0), 7 CTAs running
GPGPU-Sim uArch: core:  0, cta: 6 initialized @(8506,0)
GPGPU-Sim uArch: Shader 8 finished CTA #2 (8548,0), 7 CTAs running
GPGPU-Sim uArch: core:  8, cta: 2 initialized @(8549,0)
GPGPU-Sim uArch: Shader 0 finished CTA #3 (8551,0), 7 CTAs running
GPGPU-Sim uArch: core:  0, cta: 3 initialized @(8552,0)
GPGPU-Sim uArch: Shader 4 finished CTA #2 (8570,0), 7 CTAs running
GPGPU-Sim uArch: core:  4, cta: 2 initialized @(8571,0)
GPGPU-Sim PTX: 1500000 instructions simulated : ctaid=(193,0,0) tid=(0,9,0)
GPGPU-Sim uArch: Shader 10 finished CTA #2 (8603,0), 7 CTAs running
GPGPU-Sim uArch: core: 10, cta: 2 initialized @(8604,0)
GPGPU-Sim uArch: Shader 9 finished CTA #2 (8657,0), 7 CTAs running
GPGPU-Sim uArch: core:  9, cta: 2 initialized @(8658,0)
GPGPU-Sim uArch: Shader 5 finished CTA #5 (8725,0), 7 CTAs running
GPGPU-Sim uArch: core:  5, cta: 5 initialized @(8726,0)
GPGPU-Sim uArch: Shader 0 finished CTA #2 (8871,0), 7 CTAs running
GPGPU-Sim uArch: core:  0, cta: 2 initialized @(8872,0)
GPGPU-Sim uArch: Shader 2 finished CTA #5 (8980,0), 7 CTAs running
GPGPU-Sim uArch: core:  2, cta: 5 initialized @(8981,0)
GPGPU-Sim uArch: Shader 3 finished CTA #2 (8990,0), 7 CTAs running
GPGPU-Sim uArch: core:  3, cta: 2 initialized @(8991,0)
GPGPU-Sim uArch: Shader 4 finished CTA #7 (9033,0), 7 CTAs running
GPGPU-Sim uArch: core:  4, cta: 7 initialized @(9034,0)
GPGPU-Sim uArch: Shader 7 finished CTA #2 (9100,0), 7 CTAs running
GPGPU-Sim uArch: core:  7, cta: 2 initialized @(9101,0)
GPGPU-Sim uArch: Shader 7 finished CTA #3 (9241,0), 7 CTAs running
GPGPU-Sim uArch: core:  7, cta: 3 initialized @(9242,0)
GPGPU-Sim PTX: 1600000 instructions simulated : ctaid=(211,0,0) tid=(0,4,0)
GPGPU-Sim uArch: Shader 13 finished CTA #7 (9271,0), 7 CTAs running
GPGPU-Sim uArch: core: 13, cta: 7 initialized @(9272,0)
GPGPU-Sim uArch: Shader 11 finished CTA #3 (9471,0), 7 CTAs running
GPGPU-Sim uArch: core: 11, cta: 3 initialized @(9472,0)
GPGPU-Sim uArch: cycles simulated: 9500  inst.: 1538804 (ipc=162.0) sim_rate=256467 (inst/sec) elapsed = 0:0:00:06 / Fri Jan 16 06:06:34 2015
GPGPU-Sim uArch: Shader 4 finished CTA #3 (9514,0), 7 CTAs running
GPGPU-Sim uArch: core:  4, cta: 3 initialized @(9515,0)
GPGPU-Sim uArch: Shader 3 finished CTA #3 (9665,0), 7 CTAs running
GPGPU-Sim uArch: core:  3, cta: 3 initialized @(9666,0)
GPGPU-Sim uArch: Shader 7 finished CTA #1 (9717,0), 7 CTAs running
GPGPU-Sim uArch: core:  7, cta: 1 initialized @(9718,0)
GPGPU-Sim uArch: Shader 5 finished CTA #2 (9739,0), 7 CTAs running
GPGPU-Sim uArch: core:  5, cta: 2 initialized @(9740,0)
GPGPU-Sim uArch: Shader 7 finished CTA #7 (9765,0), 7 CTAs running
GPGPU-Sim uArch: core:  7, cta: 7 initialized @(9766,0)
GPGPU-Sim uArch: Shader 10 finished CTA #3 (9814,0), 7 CTAs running
GPGPU-Sim uArch: core: 10, cta: 3 initialized @(9815,0)
GPGPU-Sim uArch: Shader 1 finished CTA #7 (9823,0), 7 CTAs running
GPGPU-Sim uArch: core:  1, cta: 7 initialized @(9824,0)
GPGPU-Sim uArch: Shader 8 finished CTA #4 (9890,0), 7 CTAs running
GPGPU-Sim uArch: core:  8, cta: 4 initialized @(9891,0)
GPGPU-Sim uArch: Shader 2 finished CTA #7 (9939,0), 7 CTAs running
GPGPU-Sim uArch: core:  2, cta: 7 initialized @(9940,0)
GPGPU-Sim PTX: 1700000 instructions simulated : ctaid=(221,0,0) tid=(0,4,0)
GPGPU-Sim uArch: Shader 4 finished CTA #4 (9954,0), 7 CTAs running
GPGPU-Sim uArch: core:  4, cta: 4 initialized @(9955,0)
GPGPU-Sim uArch: Shader 5 finished CTA #0 (9989,0), 7 CTAs running
GPGPU-Sim uArch: core:  5, cta: 0 initialized @(9990,0)
GPGPU-Sim uArch: Shader 8 finished CTA #1 (10089,0), 7 CTAs running
GPGPU-Sim uArch: core:  8, cta: 1 initialized @(10090,0)
GPGPU-Sim uArch: Shader 1 finished CTA #3 (10096,0), 7 CTAs running
GPGPU-Sim uArch: core:  1, cta: 3 initialized @(10097,0)
GPGPU-Sim uArch: Shader 4 finished CTA #5 (10115,0), 7 CTAs running
GPGPU-Sim uArch: core:  4, cta: 5 initialized @(10116,0)
GPGPU-Sim uArch: Shader 8 finished CTA #3 (10137,0), 7 CTAs running
GPGPU-Sim uArch: core:  8, cta: 3 initialized @(10138,0)
GPGPU-Sim uArch: Shader 2 finished CTA #4 (10163,0), 7 CTAs running
GPGPU-Sim uArch: core:  2, cta: 4 initialized @(10164,0)
GPGPU-Sim uArch: Shader 12 finished CTA #1 (10189,0), 7 CTAs running
GPGPU-Sim uArch: core: 12, cta: 1 initialized @(10190,0)
GPGPU-Sim uArch: Shader 14 finished CTA #1 (10195,0), 7 CTAs running
GPGPU-Sim uArch: core: 14, cta: 1 initialized @(10196,0)
GPGPU-Sim uArch: Shader 11 finished CTA #1 (10286,0), 7 CTAs running
GPGPU-Sim uArch: core: 11, cta: 1 initialized @(10287,0)
GPGPU-Sim uArch: Shader 13 finished CTA #1 (10302,0), 7 CTAs running
GPGPU-Sim uArch: core: 13, cta: 1 initialized @(10303,0)
GPGPU-Sim uArch: Shader 10 finished CTA #1 (10318,0), 7 CTAs running
GPGPU-Sim uArch: core: 10, cta: 1 initialized @(10319,0)
GPGPU-Sim uArch: Shader 9 finished CTA #1 (10332,0), 7 CTAs running
GPGPU-Sim uArch: core:  9, cta: 1 initialized @(10333,0)
GPGPU-Sim uArch: Shader 13 finished CTA #4 (10354,0), 7 CTAs running
GPGPU-Sim uArch: core: 13, cta: 4 initialized @(10355,0)
GPGPU-Sim uArch: Shader 1 finished CTA #2 (10357,0), 7 CTAs running
GPGPU-Sim uArch: core:  1, cta: 2 initialized @(10358,0)
GPGPU-Sim uArch: Shader 14 finished CTA #3 (10413,0), 7 CTAs running
GPGPU-Sim uArch: core: 14, cta: 3 initialized @(10414,0)
GPGPU-Sim uArch: Shader 2 finished CTA #3 (10432,0), 7 CTAs running
GPGPU-Sim uArch: core:  2, cta: 3 initialized @(10433,0)
GPGPU-Sim uArch: Shader 12 finished CTA #4 (10447,0), 7 CTAs running
GPGPU-Sim uArch: core: 12, cta: 4 initialized @(10448,0)
GPGPU-Sim uArch: Shader 14 finished CTA #4 (10461,0), 7 CTAs running
GPGPU-Sim uArch: core: 14, cta: 4 initialized @(10462,0)
GPGPU-Sim uArch: Shader 5 finished CTA #7 (10500,0), 7 CTAs running
GPGPU-Sim uArch: core:  5, cta: 7 initialized @(10501,0)
GPGPU-Sim uArch: Shader 5 finished CTA #4 (10554,0), 7 CTAs running
GPGPU-Sim uArch: core:  5, cta: 4 initialized @(10555,0)
GPGPU-Sim uArch: Shader 2 finished CTA #2 (10560,0), 7 CTAs running
GPGPU-Sim uArch: core:  2, cta: 2 initialized @(10561,0)
GPGPU-Sim uArch: Shader 7 finished CTA #4 (10579,0), 7 CTAs running
GPGPU-Sim uArch: core:  7, cta: 4 initialized @(10580,0)
GPGPU-Sim uArch: Shader 11 finished CTA #4 (10584,0), 7 CTAs running
GPGPU-Sim uArch: core: 11, cta: 4 initialized @(10585,0)
GPGPU-Sim uArch: Shader 13 finished CTA #2 (10632,0), 7 CTAs running
GPGPU-Sim uArch: core: 13, cta: 2 initialized @(10633,0)
GPGPU-Sim PTX: 1800000 instructions simulated : ctaid=(239,0,0) tid=(0,8,0)
GPGPU-Sim uArch: Shader 3 finished CTA #7 (10649,0), 7 CTAs running
GPGPU-Sim uArch: core:  3, cta: 7 initialized @(10650,0)
GPGPU-Sim uArch: Shader 0 finished CTA #6 (10701,0), 7 CTAs running
GPGPU-Sim uArch: core:  0, cta: 6 initialized @(10702,0)
GPGPU-Sim uArch: Shader 1 finished CTA #1 (10726,0), 7 CTAs running
GPGPU-Sim uArch: core:  1, cta: 1 initialized @(10727,0)
GPGPU-Sim uArch: Shader 4 finished CTA #2 (10759,0), 7 CTAs running
GPGPU-Sim uArch: core:  4, cta: 2 initialized @(10760,0)
GPGPU-Sim uArch: Shader 8 finished CTA #2 (10771,0), 7 CTAs running
GPGPU-Sim uArch: core:  8, cta: 2 initialized @(10772,0)
GPGPU-Sim uArch: Shader 12 finished CTA #3 (10778,0), 7 CTAs running
GPGPU-Sim uArch: core: 12, cta: 3 initialized @(10779,0)
GPGPU-Sim uArch: Shader 0 finished CTA #3 (10839,0), 7 CTAs running
GPGPU-Sim uArch: core:  0, cta: 3 initialized @(10840,0)
GPGPU-Sim uArch: Shader 10 finished CTA #2 (10849,0), 7 CTAs running
GPGPU-Sim uArch: core: 10, cta: 2 initialized @(10850,0)
GPGPU-Sim uArch: Shader 5 finished CTA #5 (10986,0), 7 CTAs running
GPGPU-Sim uArch: core:  5, cta: 5 initialized @(10987,0)
GPGPU-Sim uArch: cycles simulated: 11000  inst.: 1746709 (ipc=158.8) sim_rate=249529 (inst/sec) elapsed = 0:0:00:07 / Fri Jan 16 06:06:35 2015
GPGPU-Sim uArch: Shader 9 finished CTA #2 (11037,0), 7 CTAs running
GPGPU-Sim uArch: core:  9, cta: 2 initialized @(11038,0)
GPGPU-Sim uArch: Shader 0 finished CTA #2 (11139,0), 7 CTAs running
GPGPU-Sim uArch: core:  0, cta: 2 initialized @(11140,0)
GPGPU-Sim uArch: Shader 2 finished CTA #5 (11200,0), 7 CTAs running
GPGPU-Sim uArch: core:  2, cta: 5 initialized @(11201,0)
GPGPU-Sim uArch: Shader 4 finished CTA #7 (11234,0), 7 CTAs running
GPGPU-Sim uArch: core:  4, cta: 7 initialized @(11235,0)
GPGPU-Sim uArch: Shader 3 finished CTA #4 (11239,0), 7 CTAs running
GPGPU-Sim uArch: core:  3, cta: 4 initialized @(11240,0)
GPGPU-Sim uArch: Shader 3 finished CTA #2 (11287,0), 7 CTAs running
GPGPU-Sim uArch: core:  3, cta: 2 initialized @(11288,0)
GPGPU-Sim PTX: 1900000 instructions simulated : ctaid=(224,0,0) tid=(0,12,0)
GPGPU-Sim uArch: Shader 13 finished CTA #3 (11310,0), 7 CTAs running
GPGPU-Sim uArch: core: 13, cta: 3 initialized @(11311,0)
GPGPU-Sim uArch: Shader 7 finished CTA #3 (11320,0), 7 CTAs running
GPGPU-Sim uArch: core:  7, cta: 3 initialized @(11321,0)
GPGPU-Sim uArch: Shader 7 finished CTA #2 (11367,0), 7 CTAs running
GPGPU-Sim uArch: core:  7, cta: 2 initialized @(11368,0)
GPGPU-Sim uArch: Shader 13 finished CTA #7 (11414,0), 7 CTAs running
GPGPU-Sim uArch: core: 13, cta: 7 initialized @(11415,0)
GPGPU-Sim uArch: Shader 11 finished CTA #2 (11466,0), 7 CTAs running
GPGPU-Sim uArch: core: 11, cta: 2 initialized @(11467,0)
GPGPU-Sim uArch: Shader 11 finished CTA #3 (11602,0), 7 CTAs running
GPGPU-Sim uArch: core: 11, cta: 3 initialized @(11603,0)
GPGPU-Sim uArch: Shader 4 finished CTA #3 (11637,0), 7 CTAs running
GPGPU-Sim uArch: core:  4, cta: 3 initialized @(11638,0)
GPGPU-Sim uArch: Shader 0 finished CTA #4 (11677,0), 7 CTAs running
GPGPU-Sim uArch: core:  0, cta: 4 initialized @(11678,0)
GPGPU-Sim uArch: Shader 1 finished CTA #1 (11757,0), 7 CTAs running
GPGPU-Sim uArch: core:  1, cta: 1 initialized @(11758,0)
GPGPU-Sim uArch: Shader 8 finished CTA #2 (11785,0), 7 CTAs running
GPGPU-Sim uArch: core:  8, cta: 2 initialized @(11786,0)
GPGPU-Sim uArch: Shader 3 finished CTA #3 (11794,0), 7 CTAs running
GPGPU-Sim uArch: core:  3, cta: 3 initialized @(11795,0)
GPGPU-Sim uArch: Shader 4 finished CTA #2 (11797,0), 7 CTAs running
GPGPU-Sim uArch: Shader 7 finished CTA #1 (11797,0), 7 CTAs running
GPGPU-Sim uArch: core:  4, cta: 2 initialized @(11798,0)
GPGPU-Sim uArch: core:  7, cta: 1 initialized @(11798,0)
GPGPU-Sim uArch: Shader 5 finished CTA #2 (11799,0), 7 CTAs running
GPGPU-Sim uArch: core:  5, cta: 2 initialized @(11800,0)
GPGPU-Sim uArch: Shader 12 finished CTA #3 (11804,0), 7 CTAs running
GPGPU-Sim uArch: core: 12, cta: 3 initialized @(11805,0)
GPGPU-Sim uArch: Shader 1 finished CTA #6 (11825,0), 7 CTAs running
GPGPU-Sim uArch: core:  1, cta: 6 initialized @(11826,0)
GPGPU-Sim uArch: Shader 10 finished CTA #2 (11878,0), 7 CTAs running
GPGPU-Sim uArch: core: 10, cta: 2 initialized @(11879,0)
GPGPU-Sim uArch: Shader 0 finished CTA #3 (11884,0), 7 CTAs running
GPGPU-Sim uArch: core:  0, cta: 3 initialized @(11885,0)
GPGPU-Sim uArch: Shader 9 finished CTA #5 (11887,0), 7 CTAs running
GPGPU-Sim uArch: core:  9, cta: 5 initialized @(11888,0)
GPGPU-Sim uArch: Shader 13 finished CTA #5 (11895,0), 7 CTAs running
GPGPU-Sim uArch: core: 13, cta: 5 initialized @(11896,0)
GPGPU-Sim uArch: Shader 1 finished CTA #7 (11903,0), 7 CTAs running
GPGPU-Sim uArch: core:  1, cta: 7 initialized @(11904,0)
GPGPU-Sim PTX: 2000000 instructions simulated : ctaid=(15,1,0) tid=(0,1,0)
GPGPU-Sim uArch: Shader 7 finished CTA #7 (11946,0), 7 CTAs running
GPGPU-Sim uArch: core:  7, cta: 7 initialized @(11947,0)
GPGPU-Sim uArch: Shader 10 finished CTA #3 (11949,0), 7 CTAs running
GPGPU-Sim uArch: core: 10, cta: 3 initialized @(11950,0)
GPGPU-Sim uArch: Shader 5 finished CTA #5 (11977,0), 7 CTAs running
GPGPU-Sim uArch: core:  5, cta: 5 initialized @(11978,0)
GPGPU-Sim uArch: Shader 12 finished CTA #2 (12008,0), 7 CTAs running
GPGPU-Sim uArch: core: 12, cta: 2 initialized @(12009,0)
GPGPU-Sim uArch: Shader 8 finished CTA #4 (12012,0), 7 CTAs running
GPGPU-Sim uArch: core:  8, cta: 4 initialized @(12013,0)
GPGPU-Sim uArch: Shader 9 finished CTA #2 (12041,0), 7 CTAs running
GPGPU-Sim uArch: core:  9, cta: 2 initialized @(12042,0)
GPGPU-Sim uArch: Shader 2 finished CTA #7 (12058,0), 7 CTAs running
GPGPU-Sim uArch: core:  2, cta: 7 initialized @(12059,0)
GPGPU-Sim uArch: Shader 4 finished CTA #4 (12071,0), 7 CTAs running
GPGPU-Sim uArch: core:  4, cta: 4 initialized @(12072,0)
GPGPU-Sim uArch: Shader 5 finished CTA #0 (12106,0), 7 CTAs running
GPGPU-Sim uArch: core:  5, cta: 0 initialized @(12107,0)
GPGPU-Sim uArch: Shader 0 finished CTA #2 (12137,0), 7 CTAs running
GPGPU-Sim uArch: core:  0, cta: 2 initialized @(12138,0)
GPGPU-Sim uArch: Shader 7 finished CTA #6 (12138,0), 7 CTAs running
GPGPU-Sim uArch: core:  7, cta: 6 initialized @(12139,0)
GPGPU-Sim uArch: Shader 1 finished CTA #3 (12219,0), 7 CTAs running
GPGPU-Sim uArch: core:  1, cta: 3 initialized @(12220,0)
GPGPU-Sim uArch: Shader 2 finished CTA #5 (12221,0), 7 CTAs running
GPGPU-Sim uArch: core:  2, cta: 5 initialized @(12222,0)
GPGPU-Sim uArch: Shader 8 finished CTA #1 (12229,0), 7 CTAs running
GPGPU-Sim uArch: core:  8, cta: 1 initialized @(12230,0)
GPGPU-Sim uArch: Shader 4 finished CTA #7 (12235,0), 7 CTAs running
GPGPU-Sim uArch: core:  4, cta: 7 initialized @(12236,0)
GPGPU-Sim uArch: Shader 2 finished CTA #4 (12269,0), 7 CTAs running
GPGPU-Sim uArch: core:  2, cta: 4 initialized @(12270,0)
GPGPU-Sim uArch: Shader 4 finished CTA #5 (12283,0), 7 CTAs running
GPGPU-Sim uArch: core:  4, cta: 5 initialized @(12284,0)
GPGPU-Sim uArch: Shader 3 finished CTA #4 (12311,0), 7 CTAs running
GPGPU-Sim uArch: core:  3, cta: 4 initialized @(12312,0)
GPGPU-Sim uArch: Shader 12 finished CTA #1 (12315,0), 7 CTAs running
GPGPU-Sim uArch: core: 12, cta: 1 initialized @(12316,0)
GPGPU-Sim uArch: Shader 14 finished CTA #1 (12329,0), 7 CTAs running
GPGPU-Sim uArch: core: 14, cta: 1 initialized @(12330,0)
GPGPU-Sim uArch: Shader 8 finished CTA #3 (12361,0), 7 CTAs running
GPGPU-Sim uArch: core:  8, cta: 3 initialized @(12362,0)
GPGPU-Sim uArch: Shader 13 finished CTA #3 (12364,0), 7 CTAs running
GPGPU-Sim uArch: core: 13, cta: 3 initialized @(12365,0)
GPGPU-Sim uArch: Shader 3 finished CTA #2 (12393,0), 7 CTAs running
GPGPU-Sim uArch: core:  3, cta: 2 initialized @(12394,0)
GPGPU-Sim uArch: Shader 13 finished CTA #1 (12427,0), 7 CTAs running
GPGPU-Sim uArch: core: 13, cta: 1 initialized @(12428,0)
GPGPU-Sim uArch: Shader 10 finished CTA #1 (12436,0), 7 CTAs running
GPGPU-Sim uArch: core: 10, cta: 1 initialized @(12437,0)
GPGPU-Sim uArch: Shader 7 finished CTA #3 (12480,0), 7 CTAs running
GPGPU-Sim uArch: Shader 11 finished CTA #1 (12480,0), 7 CTAs running
GPGPU-Sim uArch: core: 11, cta: 1 initialized @(12481,0)
GPGPU-Sim uArch: core:  7, cta: 3 initialized @(12481,0)
GPGPU-Sim uArch: Shader 13 finished CTA #4 (12495,0), 7 CTAs running
GPGPU-Sim uArch: core: 13, cta: 4 initialized @(12496,0)
GPGPU-Sim uArch: cycles simulated: 12500  inst.: 1960405 (ipc=156.8) sim_rate=245050 (inst/sec) elapsed = 0:0:00:08 / Fri Jan 16 06:06:36 2015
GPGPU-Sim uArch: Shader 9 finished CTA #1 (12523,0), 7 CTAs running
GPGPU-Sim uArch: core:  9, cta: 1 initialized @(12524,0)
GPGPU-Sim uArch: Shader 2 finished CTA #3 (12525,0), 7 CTAs running
GPGPU-Sim uArch: core:  2, cta: 3 initialized @(12526,0)
GPGPU-Sim uArch: Shader 7 finished CTA #2 (12528,0), 7 CTAs running
GPGPU-Sim uArch: core:  7, cta: 2 initialized @(12529,0)
GPGPU-Sim uArch: Shader 1 finished CTA #2 (12549,0), 7 CTAs running
GPGPU-Sim uArch: core:  1, cta: 2 initialized @(12550,0)
GPGPU-Sim uArch: Shader 14 finished CTA #3 (12567,0), 7 CTAs running
GPGPU-Sim uArch: core: 14, cta: 3 initialized @(12568,0)
GPGPU-Sim uArch: Shader 6 finished CTA #5 (12590,0), 7 CTAs running
GPGPU-Sim uArch: core:  6, cta: 5 initialized @(12591,0)
GPGPU-Sim uArch: Shader 14 finished CTA #7 (12615,0), 7 CTAs running
GPGPU-Sim uArch: core: 14, cta: 7 initialized @(12616,0)
GPGPU-Sim uArch: Shader 5 finished CTA #7 (12623,0), 7 CTAs running
GPGPU-Sim uArch: core:  5, cta: 7 initialized @(12624,0)
GPGPU-Sim uArch: Shader 12 finished CTA #4 (12629,0), 7 CTAs running
GPGPU-Sim uArch: core: 12, cta: 4 initialized @(12630,0)
GPGPU-Sim PTX: 2100000 instructions simulated : ctaid=(60,1,0) tid=(0,3,0)
GPGPU-Sim uArch: Shader 14 finished CTA #4 (12673,0), 7 CTAs running
GPGPU-Sim uArch: core: 14, cta: 4 initialized @(12674,0)
GPGPU-Sim uArch: Shader 14 finished CTA #2 (12720,0), 7 CTAs running
GPGPU-Sim uArch: core: 14, cta: 2 initialized @(12721,0)
GPGPU-Sim uArch: Shader 7 finished CTA #4 (12728,0), 7 CTAs running
GPGPU-Sim uArch: core:  7, cta: 4 initialized @(12729,0)
GPGPU-Sim uArch: Shader 13 finished CTA #7 (12761,0), 7 CTAs running
GPGPU-Sim uArch: core: 13, cta: 7 initialized @(12762,0)
GPGPU-Sim uArch: Shader 5 finished CTA #4 (12762,0), 7 CTAs running
GPGPU-Sim uArch: core:  5, cta: 4 initialized @(12763,0)
GPGPU-Sim uArch: Shader 11 finished CTA #4 (12776,0), 7 CTAs running
GPGPU-Sim uArch: core: 11, cta: 4 initialized @(12777,0)
GPGPU-Sim uArch: Shader 2 finished CTA #2 (12786,0), 7 CTAs running
GPGPU-Sim uArch: core:  2, cta: 2 initialized @(12787,0)
GPGPU-Sim uArch: Shader 3 finished CTA #7 (12893,0), 7 CTAs running
GPGPU-Sim uArch: core:  3, cta: 7 initialized @(12894,0)
GPGPU-Sim uArch: Shader 13 finished CTA #2 (12919,0), 7 CTAs running
GPGPU-Sim uArch: core: 13, cta: 2 initialized @(12920,0)
GPGPU-Sim uArch: Shader 0 finished CTA #6 (12923,0), 7 CTAs running
GPGPU-Sim uArch: core:  0, cta: 6 initialized @(12924,0)
GPGPU-Sim uArch: Shader 6 finished CTA #2 (13040,0), 7 CTAs running
GPGPU-Sim uArch: core:  6, cta: 2 initialized @(13041,0)
GPGPU-Sim uArch: Shader 1 finished CTA #0 (13102,0), 7 CTAs running
GPGPU-Sim uArch: core:  1, cta: 0 initialized @(13103,0)
GPGPU-Sim PTX: 2200000 instructions simulated : ctaid=(101,0,0) tid=(0,10,0)
GPGPU-Sim uArch: Shader 8 finished CTA #7 (13242,0), 7 CTAs running
GPGPU-Sim uArch: core:  8, cta: 7 initialized @(13243,0)
GPGPU-Sim uArch: Shader 4 finished CTA #1 (13488,0), 7 CTAs running
GPGPU-Sim uArch: core:  4, cta: 1 initialized @(13489,0)
GPGPU-Sim uArch: Shader 8 finished CTA #6 (13598,0), 7 CTAs running
GPGPU-Sim uArch: core:  8, cta: 6 initialized @(13599,0)
GPGPU-Sim uArch: Shader 1 finished CTA #5 (13638,0), 7 CTAs running
GPGPU-Sim uArch: core:  1, cta: 5 initialized @(13639,0)
GPGPU-Sim uArch: Shader 12 finished CTA #6 (13755,0), 7 CTAs running
GPGPU-Sim uArch: core: 12, cta: 6 initialized @(13756,0)
GPGPU-Sim PTX: 2300000 instructions simulated : ctaid=(56,1,0) tid=(0,11,0)
GPGPU-Sim uArch: Shader 3 finished CTA #5 (13991,0), 7 CTAs running
GPGPU-Sim uArch: core:  3, cta: 5 initialized @(13992,0)
GPGPU-Sim uArch: cycles simulated: 14000  inst.: 2204923 (ipc=157.5) sim_rate=244991 (inst/sec) elapsed = 0:0:00:09 / Fri Jan 16 06:06:37 2015
GPGPU-Sim uArch: Shader 12 finished CTA #7 (14184,0), 7 CTAs running
GPGPU-Sim uArch: core: 12, cta: 7 initialized @(14185,0)
GPGPU-Sim PTX: 2400000 instructions simulated : ctaid=(53,1,0) tid=(0,3,0)
GPGPU-Sim uArch: Shader 11 finished CTA #6 (14433,0), 7 CTAs running
GPGPU-Sim uArch: core: 11, cta: 6 initialized @(14434,0)
GPGPU-Sim uArch: Shader 0 finished CTA #1 (14518,0), 7 CTAs running
GPGPU-Sim uArch: core:  0, cta: 1 initialized @(14519,0)
GPGPU-Sim uArch: Shader 12 finished CTA #5 (14890,0), 7 CTAs running
GPGPU-Sim uArch: core: 12, cta: 5 initialized @(14891,0)
GPGPU-Sim uArch: Shader 14 finished CTA #4 (14917,0), 7 CTAs running
GPGPU-Sim uArch: core: 14, cta: 4 initialized @(14918,0)
GPGPU-Sim uArch: Shader 11 finished CTA #4 (15004,0), 7 CTAs running
GPGPU-Sim uArch: core: 11, cta: 4 initialized @(15005,0)
GPGPU-Sim PTX: 2500000 instructions simulated : ctaid=(32,1,0) tid=(0,13,0)
GPGPU-Sim uArch: Shader 14 finished CTA #2 (15021,0), 7 CTAs running
GPGPU-Sim uArch: core: 14, cta: 2 initialized @(15022,0)
GPGPU-Sim uArch: Shader 7 finished CTA #4 (15029,0), 7 CTAs running
GPGPU-Sim uArch: core:  7, cta: 4 initialized @(15030,0)
GPGPU-Sim uArch: Shader 8 finished CTA #1 (15032,0), 7 CTAs running
GPGPU-Sim uArch: core:  8, cta: 1 initialized @(15033,0)
GPGPU-Sim uArch: Shader 3 finished CTA #4 (15054,0), 7 CTAs running
GPGPU-Sim uArch: core:  3, cta: 4 initialized @(15055,0)
GPGPU-Sim uArch: Shader 2 finished CTA #2 (15060,0), 7 CTAs running
GPGPU-Sim uArch: core:  2, cta: 2 initialized @(15061,0)
GPGPU-Sim uArch: Shader 5 finished CTA #4 (15063,0), 7 CTAs running
GPGPU-Sim uArch: core:  5, cta: 4 initialized @(15064,0)
GPGPU-Sim uArch: Shader 14 finished CTA #1 (15072,0), 7 CTAs running
GPGPU-Sim uArch: core: 14, cta: 1 initialized @(15073,0)
GPGPU-Sim uArch: Shader 13 finished CTA #7 (15085,0), 7 CTAs running
GPGPU-Sim uArch: core: 13, cta: 7 initialized @(15086,0)
GPGPU-Sim uArch: Shader 3 finished CTA #1 (15101,0), 7 CTAs running
GPGPU-Sim uArch: core:  3, cta: 1 initialized @(15102,0)
GPGPU-Sim uArch: Shader 2 finished CTA #4 (15137,0), 7 CTAs running
GPGPU-Sim uArch: core:  2, cta: 4 initialized @(15138,0)
GPGPU-Sim uArch: Shader 4 finished CTA #7 (15140,0), 7 CTAs running
GPGPU-Sim uArch: Shader 7 finished CTA #5 (15140,0), 7 CTAs running
GPGPU-Sim uArch: core:  4, cta: 7 initialized @(15141,0)
GPGPU-Sim uArch: core:  7, cta: 5 initialized @(15141,0)
GPGPU-Sim uArch: Shader 13 finished CTA #3 (15143,0), 7 CTAs running
GPGPU-Sim uArch: core: 13, cta: 3 initialized @(15144,0)
GPGPU-Sim uArch: Shader 11 finished CTA #5 (15146,0), 7 CTAs running
GPGPU-Sim uArch: core: 11, cta: 5 initialized @(15147,0)
GPGPU-Sim uArch: Shader 3 finished CTA #7 (15152,0), 7 CTAs running
GPGPU-Sim uArch: core:  3, cta: 7 initialized @(15153,0)
GPGPU-Sim uArch: Shader 12 finished CTA #1 (15159,0), 7 CTAs running
GPGPU-Sim uArch: core: 12, cta: 1 initialized @(15160,0)
GPGPU-Sim uArch: Shader 8 finished CTA #3 (15167,0), 7 CTAs running
GPGPU-Sim uArch: core:  8, cta: 3 initialized @(15168,0)
GPGPU-Sim uArch: Shader 4 finished CTA #5 (15191,0), 7 CTAs running
GPGPU-Sim uArch: core:  4, cta: 5 initialized @(15192,0)
GPGPU-Sim uArch: Shader 2 finished CTA #5 (15197,0), 7 CTAs running
GPGPU-Sim uArch: core:  2, cta: 5 initialized @(15198,0)
GPGPU-Sim uArch: Shader 0 finished CTA #6 (15209,0), 7 CTAs running
GPGPU-Sim uArch: core:  0, cta: 6 initialized @(15210,0)
GPGPU-Sim uArch: Shader 3 finished CTA #2 (15249,0), 7 CTAs running
GPGPU-Sim uArch: core:  3, cta: 2 initialized @(15250,0)
GPGPU-Sim uArch: Shader 13 finished CTA #2 (15267,0), 7 CTAs running
GPGPU-Sim uArch: core: 13, cta: 2 initialized @(15268,0)
GPGPU-Sim uArch: Shader 10 finished CTA #7 (15301,0), 7 CTAs running
GPGPU-Sim uArch: core: 10, cta: 7 initialized @(15302,0)
GPGPU-Sim uArch: Shader 6 finished CTA #2 (15305,0), 7 CTAs running
GPGPU-Sim uArch: core:  6, cta: 2 initialized @(15306,0)
GPGPU-Sim uArch: Shader 13 finished CTA #1 (15315,0), 7 CTAs running
GPGPU-Sim uArch: core: 13, cta: 1 initialized @(15316,0)
GPGPU-Sim uArch: Shader 10 finished CTA #1 (15403,0), 7 CTAs running
GPGPU-Sim uArch: core: 10, cta: 1 initialized @(15404,0)
GPGPU-Sim uArch: Shader 12 finished CTA #4 (15411,0), 7 CTAs running
GPGPU-Sim uArch: core: 12, cta: 4 initialized @(15412,0)
GPGPU-Sim uArch: Shader 11 finished CTA #1 (15444,0), 7 CTAs running
GPGPU-Sim uArch: core: 11, cta: 1 initialized @(15445,0)
GPGPU-Sim uArch: Shader 1 finished CTA #3 (15455,0), 7 CTAs running
GPGPU-Sim uArch: core:  1, cta: 3 initialized @(15456,0)
GPGPU-Sim uArch: Shader 7 finished CTA #6 (15501,0), 7 CTAs running
GPGPU-Sim uArch: core:  7, cta: 6 initialized @(15502,0)
GPGPU-Sim uArch: Shader 1 finished CTA #0 (15504,0), 7 CTAs running
GPGPU-Sim uArch: core:  1, cta: 0 initialized @(15505,0)
GPGPU-Sim uArch: Shader 8 finished CTA #7 (15507,0), 7 CTAs running
GPGPU-Sim uArch: core:  8, cta: 7 initialized @(15508,0)
GPGPU-Sim uArch: Shader 13 finished CTA #0 (15553,0), 7 CTAs running
GPGPU-Sim uArch: core: 13, cta: 0 initialized @(15554,0)
GPGPU-Sim uArch: Shader 4 finished CTA #0 (15591,0), 7 CTAs running
GPGPU-Sim uArch: core:  4, cta: 0 initialized @(15592,0)
GPGPU-Sim uArch: Shader 7 finished CTA #3 (15606,0), 7 CTAs running
GPGPU-Sim uArch: core:  7, cta: 3 initialized @(15607,0)
GPGPU-Sim uArch: Shader 14 finished CTA #0 (15637,0), 7 CTAs running
GPGPU-Sim uArch: core: 14, cta: 0 initialized @(15638,0)
GPGPU-Sim uArch: Shader 4 finished CTA #1 (15701,0), 7 CTAs running
GPGPU-Sim uArch: core:  4, cta: 1 initialized @(15702,0)
GPGPU-Sim PTX: 2600000 instructions simulated : ctaid=(124,1,0) tid=(0,8,0)
GPGPU-Sim uArch: Shader 5 finished CTA #6 (15725,0), 7 CTAs running
GPGPU-Sim uArch: core:  5, cta: 6 initialized @(15726,0)
GPGPU-Sim uArch: Shader 1 finished CTA #4 (15815,0), 7 CTAs running
GPGPU-Sim uArch: core:  1, cta: 4 initialized @(15816,0)
GPGPU-Sim uArch: Shader 6 finished CTA #0 (15868,0), 7 CTAs running
GPGPU-Sim uArch: core:  6, cta: 0 initialized @(15869,0)
GPGPU-Sim uArch: Shader 8 finished CTA #6 (15890,0), 7 CTAs running
GPGPU-Sim uArch: core:  8, cta: 6 initialized @(15891,0)
GPGPU-Sim uArch: Shader 1 finished CTA #5 (15938,0), 7 CTAs running
GPGPU-Sim uArch: core:  1, cta: 5 initialized @(15939,0)
GPGPU-Sim uArch: cycles simulated: 16000  inst.: 2494429 (ipc=155.9) sim_rate=249442 (inst/sec) elapsed = 0:0:00:10 / Fri Jan 16 06:06:38 2015
GPGPU-Sim uArch: Shader 12 finished CTA #6 (16110,0), 7 CTAs running
GPGPU-Sim uArch: core: 12, cta: 6 initialized @(16111,0)
GPGPU-Sim uArch: Shader 13 finished CTA #6 (16160,0), 7 CTAs running
GPGPU-Sim uArch: core: 13, cta: 6 initialized @(16161,0)
GPGPU-Sim uArch: Shader 14 finished CTA #6 (16185,0), 7 CTAs running
GPGPU-Sim uArch: core: 14, cta: 6 initialized @(16186,0)
GPGPU-Sim uArch: Shader 7 finished CTA #0 (16223,0), 7 CTAs running
GPGPU-Sim uArch: core:  7, cta: 0 initialized @(16224,0)
GPGPU-Sim PTX: 2700000 instructions simulated : ctaid=(123,1,0) tid=(0,3,0)
GPGPU-Sim uArch: Shader 4 finished CTA #3 (16385,0), 7 CTAs running
GPGPU-Sim uArch: core:  4, cta: 3 initialized @(16386,0)
GPGPU-Sim uArch: Shader 3 finished CTA #5 (16393,0), 7 CTAs running
GPGPU-Sim uArch: core:  3, cta: 5 initialized @(16394,0)
GPGPU-Sim uArch: Shader 9 finished CTA #7 (16450,0), 7 CTAs running
GPGPU-Sim uArch: core:  9, cta: 7 initialized @(16451,0)
GPGPU-Sim uArch: Shader 5 finished CTA #3 (16505,0), 7 CTAs running
GPGPU-Sim uArch: core:  5, cta: 3 initialized @(16506,0)
GPGPU-Sim uArch: Shader 9 finished CTA #4 (16628,0), 7 CTAs running
GPGPU-Sim uArch: core:  9, cta: 4 initialized @(16629,0)
GPGPU-Sim uArch: Shader 11 finished CTA #2 (16712,0), 7 CTAs running
GPGPU-Sim uArch: core: 11, cta: 2 initialized @(16713,0)
GPGPU-Sim uArch: Shader 1 finished CTA #6 (16774,0), 7 CTAs running
GPGPU-Sim uArch: core:  1, cta: 6 initialized @(16775,0)
GPGPU-Sim PTX: 2800000 instructions simulated : ctaid=(112,1,0) tid=(0,15,0)
GPGPU-Sim uArch: Shader 12 finished CTA #3 (16889,0), 7 CTAs running
GPGPU-Sim uArch: core: 12, cta: 3 initialized @(16890,0)
GPGPU-Sim uArch: Shader 2 finished CTA #6 (16922,0), 7 CTAs running
GPGPU-Sim uArch: core:  2, cta: 6 initialized @(16923,0)
GPGPU-Sim uArch: Shader 0 finished CTA #0 (16976,0), 7 CTAs running
GPGPU-Sim uArch: core:  0, cta: 0 initialized @(16977,0)
GPGPU-Sim uArch: Shader 14 finished CTA #5 (17150,0), 7 CTAs running
GPGPU-Sim uArch: core: 14, cta: 5 initialized @(17151,0)
GPGPU-Sim uArch: Shader 10 finished CTA #0 (17151,0), 7 CTAs running
GPGPU-Sim uArch: core: 10, cta: 0 initialized @(17152,0)
GPGPU-Sim uArch: Shader 4 finished CTA #4 (17160,0), 7 CTAs running
GPGPU-Sim uArch: core:  4, cta: 4 initialized @(17161,0)
GPGPU-Sim uArch: Shader 0 finished CTA #1 (17400,0), 7 CTAs running
GPGPU-Sim uArch: core:  0, cta: 1 initialized @(17401,0)
GPGPU-Sim PTX: 2900000 instructions simulated : ctaid=(37,1,0) tid=(0,9,0)
GPGPU-Sim uArch: cycles simulated: 17500  inst.: 2741138 (ipc=156.6) sim_rate=249194 (inst/sec) elapsed = 0:0:00:11 / Fri Jan 16 06:06:39 2015
GPGPU-Sim uArch: Shader 2 finished CTA #0 (17618,0), 7 CTAs running
GPGPU-Sim uArch: core:  2, cta: 0 initialized @(17619,0)
GPGPU-Sim uArch: Shader 6 finished CTA #4 (17844,0), 7 CTAs running
GPGPU-Sim uArch: core:  6, cta: 4 initialized @(17845,0)
GPGPU-Sim uArch: Shader 4 finished CTA #6 (17855,0), 7 CTAs running
GPGPU-Sim uArch: core:  4, cta: 6 initialized @(17856,0)
GPGPU-Sim uArch: Shader 7 finished CTA #1 (17911,0), 7 CTAs running
GPGPU-Sim uArch: core:  7, cta: 1 initialized @(17912,0)
GPGPU-Sim uArch: Shader 6 finished CTA #7 (17916,0), 7 CTAs running
GPGPU-Sim uArch: core:  6, cta: 7 initialized @(17917,0)
GPGPU-Sim PTX: 3000000 instructions simulated : ctaid=(34,1,0) tid=(0,1,0)
GPGPU-Sim uArch: Shader 5 finished CTA #2 (18182,0), 7 CTAs running
GPGPU-Sim uArch: core:  5, cta: 2 initialized @(18183,0)
GPGPU-Sim uArch: Shader 6 finished CTA #1 (18421,0), 7 CTAs running
GPGPU-Sim uArch: core:  6, cta: 1 initialized @(18422,0)
GPGPU-Sim uArch: Shader 7 finished CTA #2 (18470,0), 7 CTAs running
GPGPU-Sim uArch: core:  7, cta: 2 initialized @(18471,0)
GPGPU-Sim uArch: Shader 0 finished CTA #4 (18497,0), 7 CTAs running
GPGPU-Sim uArch: core:  0, cta: 4 initialized @(18498,0)
GPGPU-Sim uArch: Shader 6 finished CTA #3 (18525,0), 7 CTAs running
GPGPU-Sim uArch: core:  6, cta: 3 initialized @(18526,0)
GPGPU-Sim PTX: 3100000 instructions simulated : ctaid=(95,0,0) tid=(0,7,0)
GPGPU-Sim uArch: Shader 11 finished CTA #6 (18762,0), 7 CTAs running
GPGPU-Sim uArch: core: 11, cta: 6 initialized @(18763,0)
GPGPU-Sim uArch: Shader 6 finished CTA #6 (18793,0), 7 CTAs running
GPGPU-Sim uArch: core:  6, cta: 6 initialized @(18794,0)
GPGPU-Sim uArch: Shader 9 finished CTA #1 (18921,0), 7 CTAs running
GPGPU-Sim uArch: core:  9, cta: 1 initialized @(18922,0)
GPGPU-Sim uArch: cycles simulated: 19000  inst.: 2990908 (ipc=157.4) sim_rate=249242 (inst/sec) elapsed = 0:0:00:12 / Fri Jan 16 06:06:40 2015
GPGPU-Sim uArch: Shader 3 finished CTA #1 (19012,0), 7 CTAs running
GPGPU-Sim uArch: core:  3, cta: 1 initialized @(19013,0)
GPGPU-Sim PTX: 3200000 instructions simulated : ctaid=(162,1,0) tid=(0,0,0)
GPGPU-Sim uArch: Shader 11 finished CTA #7 (19252,0), 7 CTAs running
GPGPU-Sim uArch: core: 11, cta: 7 initialized @(19253,0)
GPGPU-Sim uArch: Shader 8 finished CTA #5 (19666,0), 7 CTAs running
GPGPU-Sim uArch: core:  8, cta: 5 initialized @(19667,0)
GPGPU-Sim PTX: 3300000 instructions simulated : ctaid=(159,1,0) tid=(0,8,0)
GPGPU-Sim uArch: Shader 2 finished CTA #6 (19798,0), 7 CTAs running
GPGPU-Sim uArch: core:  2, cta: 6 initialized @(19799,0)
GPGPU-Sim uArch: Shader 1 finished CTA #6 (19829,0), 7 CTAs running
GPGPU-Sim uArch: core:  1, cta: 6 initialized @(19830,0)
GPGPU-Sim uArch: Shader 0 finished CTA #0 (19833,0), 7 CTAs running
GPGPU-Sim uArch: core:  0, cta: 0 initialized @(19834,0)
GPGPU-Sim uArch: Shader 12 finished CTA #3 (19853,0), 7 CTAs running
GPGPU-Sim uArch: core: 12, cta: 3 initialized @(19854,0)
GPGPU-Sim uArch: Shader 10 finished CTA #0 (19857,0), 7 CTAs running
GPGPU-Sim uArch: core: 10, cta: 0 initialized @(19858,0)
GPGPU-Sim uArch: Shader 1 finished CTA #2 (19872,0), 7 CTAs running
GPGPU-Sim uArch: core:  1, cta: 2 initialized @(19873,0)
GPGPU-Sim uArch: Shader 14 finished CTA #5 (19884,0), 7 CTAs running
GPGPU-Sim uArch: core: 14, cta: 5 initialized @(19885,0)
GPGPU-Sim uArch: Shader 4 finished CTA #4 (19917,0), 7 CTAs running
GPGPU-Sim uArch: core:  4, cta: 4 initialized @(19918,0)
GPGPU-Sim uArch: Shader 0 finished CTA #1 (20097,0), 7 CTAs running
GPGPU-Sim uArch: core:  0, cta: 1 initialized @(20098,0)
GPGPU-Sim uArch: Shader 5 finished CTA #0 (20196,0), 7 CTAs running
GPGPU-Sim uArch: core:  5, cta: 0 initialized @(20197,0)
GPGPU-Sim uArch: Shader 10 finished CTA #5 (20211,0), 7 CTAs running
GPGPU-Sim uArch: core: 10, cta: 5 initialized @(20212,0)
GPGPU-Sim uArch: Shader 0 finished CTA #3 (20229,0), 7 CTAs running
GPGPU-Sim uArch: core:  0, cta: 3 initialized @(20230,0)
GPGPU-Sim uArch: Shader 10 finished CTA #4 (20259,0), 7 CTAs running
GPGPU-Sim uArch: core: 10, cta: 4 initialized @(20260,0)
GPGPU-Sim uArch: Shader 2 finished CTA #0 (20299,0), 7 CTAs running
GPGPU-Sim uArch: core:  2, cta: 0 initialized @(20300,0)
GPGPU-Sim uArch: Shader 8 finished CTA #4 (20325,0), 7 CTAs running
GPGPU-Sim uArch: core:  8, cta: 4 initialized @(20326,0)
GPGPU-Sim uArch: Shader 6 finished CTA #4 (20358,0), 7 CTAs running
GPGPU-Sim uArch: core:  6, cta: 4 initialized @(20359,0)
GPGPU-Sim uArch: Shader 5 finished CTA #7 (20377,0), 7 CTAs running
GPGPU-Sim uArch: core:  5, cta: 7 initialized @(20378,0)
GPGPU-Sim uArch: Shader 6 finished CTA #7 (20407,0), 7 CTAs running
GPGPU-Sim uArch: core:  6, cta: 7 initialized @(20408,0)
GPGPU-Sim uArch: Shader 4 finished CTA #6 (20419,0), 7 CTAs running
GPGPU-Sim uArch: core:  4, cta: 6 initialized @(20420,0)
GPGPU-Sim uArch: Shader 7 finished CTA #1 (20452,0), 7 CTAs running
GPGPU-Sim uArch: core:  7, cta: 1 initialized @(20453,0)
GPGPU-Sim PTX: 3400000 instructions simulated : ctaid=(131,0,0) tid=(0,3,0)
GPGPU-Sim uArch: Shader 12 finished CTA #7 (20484,0), 7 CTAs running
GPGPU-Sim uArch: core: 12, cta: 7 initialized @(20485,0)
GPGPU-Sim uArch: cycles simulated: 20500  inst.: 3208026 (ipc=156.5) sim_rate=246771 (inst/sec) elapsed = 0:0:00:13 / Fri Jan 16 06:06:41 2015
GPGPU-Sim uArch: Shader 5 finished CTA #1 (20672,0), 7 CTAs running
GPGPU-Sim uArch: core:  5, cta: 1 initialized @(20673,0)
GPGPU-Sim uArch: Shader 5 finished CTA #2 (20745,0), 7 CTAs running
GPGPU-Sim uArch: core:  5, cta: 2 initialized @(20746,0)
GPGPU-Sim uArch: Shader 7 finished CTA #4 (20748,0), 7 CTAs running
GPGPU-Sim uArch: core:  7, cta: 4 initialized @(20749,0)
GPGPU-Sim uArch: Shader 6 finished CTA #1 (20907,0), 7 CTAs running
GPGPU-Sim uArch: core:  6, cta: 1 initialized @(20908,0)
GPGPU-Sim uArch: Shader 0 finished CTA #4 (20949,0), 7 CTAs running
GPGPU-Sim uArch: core:  0, cta: 4 initialized @(20950,0)
GPGPU-Sim uArch: Shader 8 finished CTA #2 (21030,0), 7 CTAs running
GPGPU-Sim uArch: core:  8, cta: 2 initialized @(21031,0)
GPGPU-Sim uArch: Shader 6 finished CTA #3 (21058,0), 7 CTAs running
GPGPU-Sim uArch: core:  6, cta: 3 initialized @(21059,0)
GPGPU-Sim uArch: Shader 9 finished CTA #3 (21078,0), 7 CTAs running
GPGPU-Sim uArch: core:  9, cta: 3 initialized @(21079,0)
GPGPU-Sim uArch: Shader 7 finished CTA #2 (21084,0), 7 CTAs running
GPGPU-Sim uArch: core:  7, cta: 2 initialized @(21085,0)
GPGPU-Sim uArch: Shader 0 finished CTA #5 (21117,0), 7 CTAs running
GPGPU-Sim uArch: core:  0, cta: 5 initialized @(21118,0)
GPGPU-Sim PTX: 3500000 instructions simulated : ctaid=(169,1,0) tid=(0,13,0)
GPGPU-Sim uArch: Shader 3 finished CTA #3 (21181,0), 7 CTAs running
GPGPU-Sim uArch: core:  3, cta: 3 initialized @(21182,0)
GPGPU-Sim uArch: Shader 11 finished CTA #6 (21231,0), 7 CTAs running
GPGPU-Sim uArch: core: 11, cta: 6 initialized @(21232,0)
GPGPU-Sim uArch: Shader 4 finished CTA #7 (21281,0), 7 CTAs running
GPGPU-Sim uArch: core:  4, cta: 7 initialized @(21282,0)
GPGPU-Sim uArch: Shader 6 finished CTA #6 (21291,0), 7 CTAs running
GPGPU-Sim uArch: core:  6, cta: 6 initialized @(21292,0)
GPGPU-Sim uArch: Shader 7 finished CTA #7 (21403,0), 7 CTAs running
GPGPU-Sim uArch: core:  7, cta: 7 initialized @(21404,0)
GPGPU-Sim uArch: Shader 9 finished CTA #1 (21445,0), 7 CTAs running
GPGPU-Sim uArch: Shader 12 finished CTA #1 (21445,0), 7 CTAs running
GPGPU-Sim uArch: core:  9, cta: 1 initialized @(21446,0)
GPGPU-Sim uArch: core: 12, cta: 1 initialized @(21446,0)
GPGPU-Sim uArch: Shader 0 finished CTA #2 (21448,0), 7 CTAs running
GPGPU-Sim uArch: core:  0, cta: 2 initialized @(21449,0)
GPGPU-Sim uArch: Shader 3 finished CTA #1 (21524,0), 7 CTAs running
GPGPU-Sim uArch: core:  3, cta: 1 initialized @(21525,0)
GPGPU-Sim uArch: Shader 8 finished CTA #3 (21529,0), 7 CTAs running
GPGPU-Sim uArch: core:  8, cta: 3 initialized @(21530,0)
GPGPU-Sim uArch: Shader 4 finished CTA #2 (21615,0), 7 CTAs running
GPGPU-Sim uArch: core:  4, cta: 2 initialized @(21616,0)
GPGPU-Sim uArch: Shader 13 finished CTA #5 (21746,0), 7 CTAs running
GPGPU-Sim uArch: core: 13, cta: 5 initialized @(21747,0)
GPGPU-Sim PTX: 3600000 instructions simulated : ctaid=(33,1,0) tid=(0,4,0)
GPGPU-Sim uArch: Shader 0 finished CTA #7 (21783,0), 7 CTAs running
GPGPU-Sim uArch: core:  0, cta: 7 initialized @(21784,0)
GPGPU-Sim uArch: Shader 11 finished CTA #7 (21794,0), 7 CTAs running
GPGPU-Sim uArch: core: 11, cta: 7 initialized @(21795,0)
GPGPU-Sim uArch: Shader 2 finished CTA #1 (21930,0), 7 CTAs running
GPGPU-Sim uArch: core:  2, cta: 1 initialized @(21931,0)
GPGPU-Sim uArch: Shader 3 finished CTA #6 (21969,0), 7 CTAs running
GPGPU-Sim uArch: core:  3, cta: 6 initialized @(21970,0)
GPGPU-Sim uArch: cycles simulated: 22000  inst.: 3427236 (ipc=155.8) sim_rate=244802 (inst/sec) elapsed = 0:0:00:14 / Fri Jan 16 06:06:42 2015
GPGPU-Sim uArch: Shader 3 finished CTA #0 (22112,0), 7 CTAs running
GPGPU-Sim uArch: core:  3, cta: 0 initialized @(22113,0)
GPGPU-Sim uArch: Shader 8 finished CTA #5 (22162,0), 7 CTAs running
GPGPU-Sim uArch: core:  8, cta: 5 initialized @(22163,0)
GPGPU-Sim uArch: Shader 2 finished CTA #6 (22168,0), 7 CTAs running
GPGPU-Sim uArch: core:  2, cta: 6 initialized @(22169,0)
GPGPU-Sim uArch: Shader 0 finished CTA #0 (22214,0), 7 CTAs running
GPGPU-Sim uArch: core:  0, cta: 0 initialized @(22215,0)
GPGPU-Sim uArch: Shader 10 finished CTA #0 (22245,0), 7 CTAs running
GPGPU-Sim uArch: core: 10, cta: 0 initialized @(22246,0)
GPGPU-Sim uArch: Shader 1 finished CTA #6 (22253,0), 7 CTAs running
GPGPU-Sim uArch: core:  1, cta: 6 initialized @(22254,0)
GPGPU-Sim uArch: Shader 12 finished CTA #3 (22258,0), 7 CTAs running
GPGPU-Sim uArch: core: 12, cta: 3 initialized @(22259,0)
GPGPU-Sim uArch: Shader 4 finished CTA #4 (22284,0), 7 CTAs running
GPGPU-Sim uArch: core:  4, cta: 4 initialized @(22285,0)
GPGPU-Sim uArch: Shader 1 finished CTA #2 (22349,0), 7 CTAs running
GPGPU-Sim uArch: core:  1, cta: 2 initialized @(22350,0)
GPGPU-Sim uArch: Shader 14 finished CTA #5 (22380,0), 7 CTAs running
GPGPU-Sim uArch: core: 14, cta: 5 initialized @(22381,0)
GPGPU-Sim PTX: 3700000 instructions simulated : ctaid=(187,1,0) tid=(0,11,0)
GPGPU-Sim uArch: Shader 14 finished CTA #4 (22428,0), 7 CTAs running
GPGPU-Sim uArch: core: 14, cta: 4 initialized @(22429,0)
GPGPU-Sim uArch: Shader 6 finished CTA #5 (22456,0), 7 CTAs running
GPGPU-Sim uArch: core:  6, cta: 5 initialized @(22457,0)
GPGPU-Sim uArch: Shader 0 finished CTA #1 (22469,0), 7 CTAs running
GPGPU-Sim uArch: core:  0, cta: 1 initialized @(22470,0)
GPGPU-Sim uArch: Shader 14 finished CTA #3 (22525,0), 7 CTAs running
GPGPU-Sim uArch: core: 14, cta: 3 initialized @(22526,0)
GPGPU-Sim uArch: Shader 0 finished CTA #3 (22549,0), 7 CTAs running
GPGPU-Sim uArch: core:  0, cta: 3 initialized @(22550,0)
GPGPU-Sim uArch: Shader 8 finished CTA #4 (22609,0), 7 CTAs running
GPGPU-Sim uArch: core:  8, cta: 4 initialized @(22610,0)
GPGPU-Sim uArch: Shader 10 finished CTA #5 (22614,0), 7 CTAs running
GPGPU-Sim uArch: core: 10, cta: 5 initialized @(22615,0)
GPGPU-Sim uArch: Shader 5 finished CTA #0 (22624,0), 7 CTAs running
GPGPU-Sim uArch: core:  5, cta: 0 initialized @(22625,0)
GPGPU-Sim uArch: Shader 2 finished CTA #0 (22632,0), 7 CTAs running
GPGPU-Sim uArch: core:  2, cta: 0 initialized @(22633,0)
GPGPU-Sim uArch: Shader 10 finished CTA #4 (22664,0), 7 CTAs running
GPGPU-Sim uArch: core: 10, cta: 4 initialized @(22665,0)
GPGPU-Sim uArch: Shader 6 finished CTA #4 (22680,0), 7 CTAs running
GPGPU-Sim uArch: core:  6, cta: 4 initialized @(22681,0)
GPGPU-Sim uArch: Shader 4 finished CTA #6 (22718,0), 7 CTAs running
GPGPU-Sim uArch: core:  4, cta: 6 initialized @(22719,0)
GPGPU-Sim uArch: Shader 5 finished CTA #7 (22727,0), 7 CTAs running
GPGPU-Sim uArch: core:  5, cta: 7 initialized @(22728,0)
GPGPU-Sim uArch: Shader 6 finished CTA #7 (22729,0), 7 CTAs running
GPGPU-Sim uArch: core:  6, cta: 7 initialized @(22730,0)
GPGPU-Sim uArch: Shader 7 finished CTA #1 (22798,0), 7 CTAs running
GPGPU-Sim uArch: core:  7, cta: 1 initialized @(22799,0)
GPGPU-Sim uArch: Shader 12 finished CTA #7 (22826,0), 7 CTAs running
GPGPU-Sim uArch: core: 12, cta: 7 initialized @(22827,0)
GPGPU-Sim uArch: Shader 7 finished CTA #4 (23054,0), 7 CTAs running
GPGPU-Sim uArch: core:  7, cta: 4 initialized @(23055,0)
GPGPU-Sim PTX: 3800000 instructions simulated : ctaid=(61,1,0) tid=(0,2,0)
GPGPU-Sim uArch: Shader 5 finished CTA #1 (23064,0), 7 CTAs running
GPGPU-Sim uArch: core:  5, cta: 1 initialized @(23065,0)
GPGPU-Sim uArch: Shader 5 finished CTA #2 (23112,0), 7 CTAs running
GPGPU-Sim uArch: core:  5, cta: 2 initialized @(23113,0)
GPGPU-Sim uArch: Shader 6 finished CTA #1 (23212,0), 7 CTAs running
GPGPU-Sim uArch: core:  6, cta: 1 initialized @(23213,0)
GPGPU-Sim uArch: Shader 0 finished CTA #4 (23227,0), 7 CTAs running
GPGPU-Sim uArch: core:  0, cta: 4 initialized @(23228,0)
GPGPU-Sim uArch: Shader 12 finished CTA #4 (23336,0), 7 CTAs running
GPGPU-Sim uArch: core: 12, cta: 4 initialized @(23337,0)
[...]
gpgpu_stall_shd_mem[t_mem][icnt_rc] = 0
gpgpu_stall_shd_mem[t_mem][data_port_stall] = 0
gpgpu_stall_shd_mem[s_mem][bk_conf] = 0
gpgpu_stall_shd_mem[gl_mem][bk_conf] = 0
gpgpu_stall_shd_mem[gl_mem][coal_stall] = 63855
gpgpu_stall_shd_mem[gl_mem][data_port_stall] = 0
gpgpu_stall_shd_mem[g_mem_ld][mshr_rc] = 0
gpgpu_stall_shd_mem[g_mem_ld][icnt_rc] = 0
gpgpu_stall_shd_mem[g_mem_ld][wb_icnt_rc] = 0
gpgpu_stall_shd_mem[g_mem_ld][wb_rsrv_fail] = 0
gpgpu_stall_shd_mem[g_mem_st][mshr_rc] = 0
gpgpu_stall_shd_mem[g_mem_st][icnt_rc] = 0
gpgpu_stall_shd_mem[g_mem_st][wb_icnt_rc] = 0
gpgpu_stall_shd_mem[g_mem_st][wb_rsrv_fail] = 0
gpgpu_stall_shd_mem[l_mem_ld][mshr_rc] = 0
gpgpu_stall_shd_mem[l_mem_ld][icnt_rc] = 0
gpgpu_stall_shd_mem[l_mem_ld][wb_icnt_rc] = 0
gpgpu_stall_shd_mem[l_mem_ld][wb_rsrv_fail] = 0
gpgpu_stall_shd_mem[l_mem_st][mshr_rc] = 0
gpgpu_stall_shd_mem[l_mem_st][icnt_rc] = 0
gpgpu_stall_shd_mem[l_mem_ld][wb_icnt_rc] = 0
gpgpu_stall_shd_mem[l_mem_ld][wb_rsrv_fail] = 0
gpu_reg_bank_conflict_stalls = 0
Warp Occupancy Distribution:
Stall:23562	W0_Idle:144856	W0_Scoreboard:3526718	W1:1442606	W2:676600	W3:415812	W4:298612	W5:213738	W6:179120	W7:158202	W8:139568	W9:111120	W10:98512	W11:91680	W12:87184	W13:69568	W14:58640	W15:60480	W16:2468784	W17:0	W18:0	W19:0	W20:0	W21:0	W22:0	W23:0	W24:0	W25:0	W26:0	W27:0	W28:0	W29:0	W30:0	W31:0	W32:0
traffic_breakdown_coretomem[CONST_ACC_R] = 120 {8:15,}
traffic_breakdown_coretomem[GLOBAL_ACC_W] = 2621440 {40:65536,}
traffic_breakdown_coretomem[INST_ACC_R] = 480 {8:60,}
traffic_breakdown_memtocore[CONST_ACC_R] = 1080 {72:15,}
traffic_breakdown_memtocore[GLOBAL_ACC_W] = 524288 {8:65536,}
traffic_breakdown_memtocore[INST_ACC_R] = 8160 {136:60,}
maxmrqlatency = 22 
maxdqlatency = 0 
maxmflatency = 458 
averagemflatency = 159 
max_icnt2mem_latency = 328 
max_icnt2sh_latency = 347894 
mrq_lat_table:1217 	191 	179 	107 	31 	0 	0 	0 	0 	0 	0 	0 	0 	0 	0 	0 	0 	0 	0 	0 	0 	0 	0 	0 	0 	0 	0 	0 	0 	0 	0 	0 	
dq_lat_table:0 	0 	0 	0 	0 	0 	0 	0 	0 	0 	0 	0 	0 	0 	0 	0 	0 	0 	0 	0 	0 	0 	0 	0 	0 	0 	0 	0 	0 	0 	0 	0 	
mf_lat_table:0 	0 	0 	0 	0 	0 	0 	64265 	1286 	0 	0 	0 	0 	0 	0 	0 	0 	0 	0 	0 	0 	0 	0 	0 	0 	0 	0 	0 	0 	0 	0 	0 	
icnt2mem_lat_table:0 	0 	0 	11489 	31605 	22281 	196 	0 	40 	0 	0 	0 	0 	0 	0 	0 	0 	0 	0 	0 	0 	0 	0 	0 	
icnt2sh_lat_table:0 	0 	0 	2 	13 	0 	0 	0 	0 	0 	0 	623 	673 	3164 	5777 	8499 	12361 	19975 	14464 	0 	0 	0 	0 	0 	
mf_lat_pw_table:0 	0 	0 	0 	0 	0 	0 	672 	3 	0 	0 	0 	0 	0 	0 	0 	0 	0 	0 	0 	0 	0 	0 	0 	0 	0 	0 	0 	0 	0 	0 	0 	
maximum concurrent accesses to same row:
dram[0]:         1         0         0         0         0         0         0         0         0         0         0         0         0         0         0         0 
dram[1]:         0         0         0         0         0         0         0         0         0         0         0         0         0         0         0         0 
dram[2]:         0         0         0         0         0         0         0         0         0         0         0         0         0         0         0         0 
dram[3]:         0         0         0         0         0         0         0         0         0         0         0         0         0         0         0         0 
dram[4]:         0         0         0         0         0         0         0         0         0         0         0         0         0         0         0         0 
dram[5]:         0         0         0         0         0         0         0         0         0         0         0         0         0         0         0         0 
maximum service time to same row:
dram[0]:       337         0         0         0      2229      2210     45916     45935         0         0         0         0         0         0         0         0 
dram[1]:      1260         0         0         0      2226      2207     45913     45932         0         0         0         0         0         0         0         0 
dram[2]:         0         0         0         0      2222      2204     45910     45929         0         0         0         0         0         0         0         0 
dram[3]:         0         0         0         0      2219      2201     45907     45925         0         0         0         0         0         0         0         0 
dram[4]:         0         0         0         0      2216      2199     45941     45922         0         0         0         0         0         0         0         0 
dram[5]:         0         0         0         0      2213      2196     45938     45919         0         0         0         0         0         0         0         0 
average row accesses per activate:
dram[0]:  1.000000      -nan      -nan      -nan 38.000000 35.000000 108.000000 98.000000      -nan      -nan      -nan      -nan      -nan      -nan      -nan      -nan 
dram[1]:  2.000000      -nan      -nan      -nan 38.000000 35.000000 108.000000 98.000000      -nan      -nan      -nan      -nan      -nan      -nan      -nan      -nan 
dram[2]:      -nan      -nan      -nan      -nan 38.000000 48.000000 108.000000 103.000000      -nan      -nan      -nan      -nan      -nan      -nan      -nan      -nan 
dram[3]:      -nan      -nan      -nan      -nan 38.000000 48.000000 108.000000 103.000000      -nan      -nan      -nan      -nan      -nan      -nan      -nan      -nan 
dram[4]:      -nan      -nan      -nan      -nan 35.000000 48.000000 98.000000 103.000000      -nan      -nan      -nan      -nan      -nan      -nan      -nan      -nan 
dram[5]:      -nan      -nan      -nan      -nan 35.000000 48.000000 98.000000 103.000000      -nan      -nan      -nan      -nan      -nan      -nan      -nan      -nan 
average row locality = 1725/28 = 61.607143
number of total memory accesses made:
dram[0]:         0         0         0         0         0         0         0         0         0         0         0         0         0         0         0         0 
dram[1]:         0         0         0         0         0         0         0         0         0         0         0         0         0         0         0         0 
dram[2]:         0         0         0         0         0         0         0         0         0         0         0         0         0         0         0         0 
dram[3]:         0         0         0         0         0         0         0         0         0         0         0         0         0         0         0         0 
dram[4]:         0         0         0         0         0         0         0         0         0         0         0         0         0         0         0         0 
dram[5]:         0         0         0         0         0         0         0         0         0         0         0         0         0         0         0         0 
total accesses: 0
min_bank_accesses = 0!
min_chip_accesses = 0!
number of total read accesses:
dram[0]:         3         0         0         0        10        10        32        32         0         0         0         0         0         0         0         0 
dram[1]:         2         0         0         0        10        10        32        32         0         0         0         0         0         0         0         0 
dram[2]:         0         0         0         0        10        12        32        32         0         0         0         0         0         0         0         0 
dram[3]:         0         0         0         0        10        12        32        32         0         0         0         0         0         0         0         0 
dram[4]:         0         0         0         0        10        12        32        32         0         0         0         0         0         0         0         0 
dram[5]:         0         0         0         0        10        12        32        32         0         0         0         0         0         0         0         0 
total reads: 517
min_bank_accesses = 0!
chip skew: 87/86 = 1.01
number of total write accesses:
dram[0]:         0         0         0         0        28        25        76        66         0         0         0         0         0         0         0         0 
dram[1]:         0         0         0         0        28        25        76        66         0         0         0         0         0         0         0         0 
dram[2]:         0         0         0         0        28        36        76        71         0         0         0         0         0         0         0         0 
dram[3]:         0         0         0         0        28        36        76        71         0         0         0         0         0         0         0         0 
dram[4]:         0         0         0         0        25        36        66        71         0         0         0         0         0         0         0         0 
dram[5]:         0         0         0         0        25        36        66        71         0         0         0         0         0         0         0         0 
total reads: 1208
min_bank_accesses = 0!
chip skew: 211/195 = 1.08
average mf latency per bank:
dram[0]:       1300    none      none      none        5565      5835      6099      6546    none      none      none      none      none      none      none      none  
dram[1]:          0    none      none      none        5497      5766      6024      6463    none      none      none      none      none      none      none      none  
dram[2]:     none      none      none      none        5435      5416      5949      6397    none      none      none      none      none      none      none      none  
dram[3]:     none      none      none      none        5367      5356      5874      6317    none      none      none      none      none      none      none      none  
dram[4]:     none      none      none      none        5995      5295      6711      6240    none      none      none      none      none      none      none      none  
dram[5]:     none      none      none      none        5909      5232      6629      6159    none      none      none      none      none      none      none      none  
maximum mf latency per bank:
dram[0]:        278         0         0         0       306       290       297       303         0         0         0         0         0         0         0         0
dram[1]:          0         0         0         0       299       293       295       301         0         0         0         0         0         0         0         0
dram[2]:          0         0         0         0       302       458       293       320         0         0         0         0         0         0         0         0
dram[3]:          0         0         0         0       299       456       295       309         0         0         0         0         0         0         0         0
dram[4]:          0         0         0         0       314       455       307       314         0         0         0         0         0         0         0         0
dram[5]:          0         0         0         0       295       453       305       301         0         0         0         0         0         0         0         0
Memory Partition 0: 
Cache L2_bank_000:
MSHR contents

Cache L2_bank_001:
MSHR contents

In Dram Latency Queue (total = 0): 
DRAM[0]: 16 bks, busW=4 BL=8 CL=12, tRRD=2 tCCD=6, tRCD=12 tRAS=28 tRP=12 tRC=40
n_cmd=459221 n_nop=458843 n_act=7 n_pre=2 n_req=282 n_rd=174 n_write=195 bw_util=0.001607
n_activity=3268 dram_eff=0.2258
bk0: 6a 459149i bk1: 0a 459220i bk2: 0a 459223i bk3: 0a 459224i bk4: 20a 458953i bk5: 20a 458971i bk6: 64a 458474i bk7: 64a 458500i bk8: 0a 459217i bk9: 0a 459219i bk10: 0a 459220i bk11: 0a 459221i bk12: 0a 459221i bk13: 0a 459221i bk14: 0a 459221i bk15: 0a 459221i 
dram_util_bins: 0 0 0 0 0 0 0 0 0 0
dram_eff_bins: 0 0 0 0 0 0 0 0 0 0
mrqq: max=4 avg=0.00130221
Memory Partition 1: 
Cache L2_bank_002:
MSHR contents

Cache L2_bank_003:
MSHR contents

In Dram Latency Queue (total = 0): 
DRAM[1]: 16 bks, busW=4 BL=8 CL=12, tRRD=2 tCCD=6, tRCD=12 tRAS=28 tRP=12 tRC=40
n_cmd=459221 n_nop=458849 n_act=5 n_pre=0 n_req=281 n_rd=172 n_write=195 bw_util=0.001598
n_activity=3179 dram_eff=0.2309
bk0: 4a 459201i bk1: 0a 459222i bk2: 0a 459222i bk3: 0a 459224i bk4: 20a 458952i bk5: 20a 458968i bk6: 64a 458474i bk7: 64a 458501i bk8: 0a 459217i bk9: 0a 459220i bk10: 0a 459220i bk11: 0a 459221i bk12: 0a 459221i bk13: 0a 459221i bk14: 0a 459221i bk15: 0a 459221i 
dram_util_bins: 0 0 0 0 0 0 0 0 0 0
dram_eff_bins: 0 0 0 0 0 0 0 0 0 0
mrqq: max=4 avg=0.00130003
Memory Partition 2: 
Cache L2_bank_004:
MSHR contents

Cache L2_bank_005:
MSHR contents

In Dram Latency Queue (total = 0): 
DRAM[2]: 16 bks, busW=4 BL=8 CL=12, tRRD=2 tCCD=6, tRCD=12 tRAS=28 tRP=12 tRC=40
n_cmd=459221 n_nop=458834 n_act=4 n_pre=0 n_req=297 n_rd=172 n_write=211 bw_util=0.001668
n_activity=3248 dram_eff=0.2358
bk0: 0a 459221i bk1: 0a 459223i bk2: 0a 459223i bk3: 0a 459223i bk4: 20a 458958i bk5: 24a 458888i bk6: 64a 458490i bk7: 64a 458459i bk8: 0a 459218i bk9: 0a 459220i bk10: 0a 459220i bk11: 0a 459221i bk12: 0a 459221i bk13: 0a 459221i bk14: 0a 459221i bk15: 0a 459221i 
dram_util_bins: 0 0 0 0 0 0 0 0 0 0
dram_eff_bins: 0 0 0 0 0 0 0 0 0 0
mrqq: max=4 avg=0.00141109
Memory Partition 3: 
Cache L2_bank_006:
MSHR contents

Cache L2_bank_007:
MSHR contents

In Dram Latency Queue (total = 0): 
DRAM[3]: 16 bks, busW=4 BL=8 CL=12, tRRD=2 tCCD=6, tRCD=12 tRAS=28 tRP=12 tRC=40
n_cmd=459221 n_nop=458834 n_act=4 n_pre=0 n_req=297 n_rd=172 n_write=211 bw_util=0.001668
n_activity=3247 dram_eff=0.2359
bk0: 0a 459221i bk1: 0a 459223i bk2: 0a 459223i bk3: 0a 459223i bk4: 20a 458958i bk5: 24a 458890i bk6: 64a 458490i bk7: 64a 458461i bk8: 0a 459218i bk9: 0a 459220i bk10: 0a 459220i bk11: 0a 459221i bk12: 0a 459221i bk13: 0a 459221i bk14: 0a 459221i bk15: 0a 459221i 
dram_util_bins: 0 0 0 0 0 0 0 0 0 0
dram_eff_bins: 0 0 0 0 0 0 0 0 0 0
mrqq: max=4 avg=0.0014002
Memory Partition 4: 
Cache L2_bank_008:
MSHR contents

Cache L2_bank_009:
MSHR contents

In Dram Latency Queue (total = 0): 
DRAM[4]: 16 bks, busW=4 BL=8 CL=12, tRRD=2 tCCD=6, tRCD=12 tRAS=28 tRP=12 tRC=40
n_cmd=459221 n_nop=458847 n_act=4 n_pre=0 n_req=284 n_rd=172 n_write=198 bw_util=0.001611
n_activity=3167 dram_eff=0.2337
bk0: 0a 459221i bk1: 0a 459223i bk2: 0a 459223i bk3: 0a 459223i bk4: 20a 458968i bk5: 24a 458911i bk6: 64a 458506i bk7: 64a 458492i bk8: 0a 459217i bk9: 0a 459218i bk10: 0a 459219i bk11: 0a 459221i bk12: 0a 459221i bk13: 0a 459221i bk14: 0a 459221i bk15: 0a 459221i 
dram_util_bins: 0 0 0 0 0 0 0 0 0 0
dram_eff_bins: 0 0 0 0 0 0 0 0 0 0
mrqq: max=4 avg=0.00129785
Memory Partition 5: 
Cache L2_bank_010:
MSHR contents

Cache L2_bank_011:
MSHR contents

In Dram Latency Queue (total = 0): 
DRAM[5]: 16 bks, busW=4 BL=8 CL=12, tRRD=2 tCCD=6, tRCD=12 tRAS=28 tRP=12 tRC=40
n_cmd=459221 n_nop=458847 n_act=4 n_pre=0 n_req=284 n_rd=172 n_write=198 bw_util=0.001611
n_activity=3166 dram_eff=0.2337
bk0: 0a 459221i bk1: 0a 459223i bk2: 0a 459223i bk3: 0a 459223i bk4: 20a 458967i bk5: 24a 458909i bk6: 64a 458504i bk7: 64a 458490i bk8: 0a 459217i bk9: 0a 459218i bk10: 0a 459219i bk11: 0a 459221i bk12: 0a 459221i bk13: 0a 459221i bk14: 0a 459221i bk15: 0a 459221i 
dram_util_bins: 0 0 0 0 0 0 0 0 0 0
dram_eff_bins: 0 0 0 0 0 0 0 0 0 0
mrqq: max=4 avg=0.00130874

========= L2 cache stats =========
L2_cache_bank[0]: Access = 5421, Miss = 45, Miss_rate = 0.008, Pending_hits = 71, Reservation_fails = 543
L2_cache_bank[1]: Access = 5376, Miss = 42, Miss_rate = 0.008, Pending_hits = 49, Reservation_fails = 180
L2_cache_bank[2]: Access = 5406, Miss = 44, Miss_rate = 0.008, Pending_hits = 68, Reservation_fails = 387
L2_cache_bank[3]: Access = 5376, Miss = 42, Miss_rate = 0.008, Pending_hits = 49, Reservation_fails = 180
L2_cache_bank[4]: Access = 5376, Miss = 42, Miss_rate = 0.008, Pending_hits = 62, Reservation_fails = 199
L2_cache_bank[5]: Access = 5632, Miss = 44, Miss_rate = 0.008, Pending_hits = 63, Reservation_fails = 380
L2_cache_bank[6]: Access = 5376, Miss = 42, Miss_rate = 0.008, Pending_hits = 62, Reservation_fails = 199
L2_cache_bank[7]: Access = 5632, Miss = 44, Miss_rate = 0.008, Pending_hits = 63, Reservation_fails = 380
L2_cache_bank[8]: Access = 5376, Miss = 42, Miss_rate = 0.008, Pending_hits = 49, Reservation_fails = 200
L2_cache_bank[9]: Access = 5632, Miss = 44, Miss_rate = 0.008, Pending_hits = 63, Reservation_fails = 381
L2_cache_bank[10]: Access = 5376, Miss = 42, Miss_rate = 0.008, Pending_hits = 49, Reservation_fails = 201
L2_cache_bank[11]: Access = 5632, Miss = 44, Miss_rate = 0.008, Pending_hits = 63, Reservation_fails = 382
L2_total_cache_accesses = 65611
L2_total_cache_misses = 517
L2_total_cache_miss_rate = 0.0079
L2_total_cache_pending_hits = 711
L2_total_cache_reservation_fails = 3612
L2_total_cache_breakdown:
	L2_cache_stats_breakdown[CONST_ACC_R][HIT] = 11
	L2_cache_stats_breakdown[CONST_ACC_R][HIT_RESERVED] = 3
	L2_cache_stats_breakdown[CONST_ACC_R][MISS] = 1
	L2_cache_stats_breakdown[CONST_ACC_R][RESERVATION_FAIL] = 109
	L2_cache_stats_breakdown[GLOBAL_ACC_W][HIT] = 64328
	L2_cache_stats_breakdown[GLOBAL_ACC_W][HIT_RESERVED] = 696
	L2_cache_stats_breakdown[GLOBAL_ACC_W][MISS] = 512
	L2_cache_stats_breakdown[GLOBAL_ACC_W][RESERVATION_FAIL] = 3083
	L2_cache_stats_breakdown[INST_ACC_R][HIT] = 44
	L2_cache_stats_breakdown[INST_ACC_R][HIT_RESERVED] = 12
	L2_cache_stats_breakdown[INST_ACC_R][MISS] = 4
	L2_cache_stats_breakdown[INST_ACC_R][RESERVATION_FAIL] = 420
L2_cache_data_port_util = 0.015
L2_cache_fill_port_util = 0.000

icnt_total_pkts_mem_to_simt=65881
icnt_total_pkts_simt_to_mem=131147
LD_mem_lat_dist  0 0 0 0 0 0 0 0 0 0 0 0 0 0 0 0 0 0 0 0 0 0 0 0 0 0 0
ST_mem_lat_dist  0 0 0 0 0 0 0 0 0 0 0 0 0 0 0 0 0 0 0 0 0 0 0 0 0 0 0
----------------------------Interconnect-DETAILS--------------------------------
Class 0:
Packet latency average = 12.905
	minimum = 6
	maximum = 212
Network latency average = 9.31078
	minimum = 6
	maximum = 201
Slowest packet = 635
Flit latency average = 9.70404
	minimum = 6
	maximum = 200
Slowest flit = 1390
Fragmentation average = 0
	minimum = 0
	maximum = 0
Injected packet rate average = 0.0139699
	minimum = 0.011972 (at node 13)
	maximum = 0.0161888 (at node 20)
Accepted packet rate average = 0.0139699
	minimum = 0.011972 (at node 13)
	maximum = 0.0161888 (at node 20)
Injected flit rate average = 0.0209757
	minimum = 0.0154529 (at node 16)
	maximum = 0.0263212 (at node 5)
Accepted flit rate average= 0.0209757
	minimum = 0.0120237 (at node 13)
	maximum = 0.0323776 (at node 20)
Injected packet length average = 1.50149
Accepted packet length average = 1.50149
Total in-flight flits = 0 (0 measured)
====== Overall Traffic Statistics ======
====== Traffic class 0 ======
Packet latency average = 12.905 (1 samples)
	minimum = 6 (1 samples)
	maximum = 212 (1 samples)
Network latency average = 9.31078 (1 samples)
	minimum = 6 (1 samples)
	maximum = 201 (1 samples)
Flit latency average = 9.70404 (1 samples)
	minimum = 6 (1 samples)
	maximum = 200 (1 samples)
Fragmentation average = 0 (1 samples)
	minimum = 0 (1 samples)
	maximum = 0 (1 samples)
Injected packet rate average = 0.0139699 (1 samples)
	minimum = 0.011972 (1 samples)
	maximum = 0.0161888 (1 samples)
Accepted packet rate average = 0.0139699 (1 samples)
	minimum = 0.011972 (1 samples)
	maximum = 0.0161888 (1 samples)
Injected flit rate average = 0.0209757 (1 samples)
	minimum = 0.0154529 (1 samples)
	maximum = 0.0263212 (1 samples)
Accepted flit rate average = 0.0209757 (1 samples)
	minimum = 0.0120237 (1 samples)
	maximum = 0.0323776 (1 samples)
Injected packet size average = 1.50149 (1 samples)
Accepted packet size average = 1.50149 (1 samples)
Hops average = 1 (1 samples)
----------------------------END-of-Interconnect-DETAILS-------------------------


gpgpu_simulation_time = 0 days, 0 hrs, 3 min, 36 sec (216 sec)
gpgpu_simulation_rate = 242868 (inst/sec)
gpgpu_simulation_rate = 1610 (cycle/sec)
