

        *** GPGPU-Sim Simulator Version 3.2.2  [build 17315] ***


GPGPU-Sim PTX: simulation mode 0 (can change with PTX_SIM_MODE_FUNC environment variable:
               1=functional simulation only, 0=detailed performance simulator)
GPGPU-Sim: Configuration options:

-network_mode                           1 # Interconnection network mode
-inter_config_file   config_fermi_islip.icnt # Interconnection network config file
-gpgpu_ptx_use_cuobjdump                    1 # Use cuobjdump to extract ptx and sass from binaries
-gpgpu_experimental_lib_support                    0 # Try to extract code from cuda libraries [Broken because of unknown cudaGetExportTable]
-gpgpu_ptx_convert_to_ptxplus                    0 # Convert SASS (native ISA) to ptxplus and run ptxplus
-gpgpu_ptx_force_max_capability                   20 # Force maximum compute capability
-gpgpu_ptx_inst_debug_to_file                    0 # Dump executed instructions' debug information to file
-gpgpu_ptx_inst_debug_file       inst_debug.txt # Executed instructions' debug output file
-gpgpu_ptx_inst_debug_thread_uid                    1 # Thread UID for executed instructions' debug output
-gpgpu_simd_model                       1 # 1 = post-dominator
-gpgpu_shader_core_pipeline              1536:32 # shader core pipeline config, i.e., {<nthread>:<warpsize>}
-gpgpu_tex_cache:l1  4:128:24,L:R:m:N,F:128:4,128:2 # per-shader L1 texture cache  (READ-ONLY) config  {<nsets>:<bsize>:<assoc>,<rep>:<wr>:<alloc>:<wr_alloc>,<mshr>:<N>:<merge>,<mq>:<rf>}
-gpgpu_const_cache:l1 64:64:2,L:R:f:N,A:2:32,4 # per-shader L1 constant memory cache  (READ-ONLY) config  {<nsets>:<bsize>:<assoc>,<rep>:<wr>:<alloc>:<wr_alloc>,<mshr>:<N>:<merge>,<mq>} 
-gpgpu_cache:il1     4:128:4,L:R:f:N,A:2:32,4 # shader L1 instruction cache config  {<nsets>:<bsize>:<assoc>,<rep>:<wr>:<alloc>:<wr_alloc>,<mshr>:<N>:<merge>,<mq>} 
-gpgpu_cache:dl1     32:128:4,L:L:m:N,A:32:8,8 # per-shader L1 data cache config  {<nsets>:<bsize>:<assoc>,<rep>:<wr>:<alloc>:<wr_alloc>,<mshr>:<N>:<merge>,<mq> | none}
-gpgpu_cache:dl1PrefL1                 none # per-shader L1 data cache config  {<nsets>:<bsize>:<assoc>,<rep>:<wr>:<alloc>:<wr_alloc>,<mshr>:<N>:<merge>,<mq> | none}
-gpgpu_cache:dl1PreShared                 none # per-shader L1 data cache config  {<nsets>:<bsize>:<assoc>,<rep>:<wr>:<alloc>:<wr_alloc>,<mshr>:<N>:<merge>,<mq> | none}
-gmem_skip_L1D                          0 # global memory access skip L1D cache (implements -Xptxas -dlcm=cg, default=no skip)
-gpgpu_perfect_mem                      0 # enable perfect memory mode (no cache miss)
-n_regfile_gating_group                    4 # group of lanes that should be read/written together)
-gpgpu_clock_gated_reg_file                    0 # enable clock gated reg file for power calculations
-gpgpu_clock_gated_lanes                    0 # enable clock gated lanes for power calculations
-gpgpu_shader_registers                32768 # Number of registers per shader core. Limits number of concurrent CTAs. (default 8192)
-gpgpu_shader_cta                       8 # Maximum number of concurrent CTAs in shader (default 8)
-gpgpu_n_clusters                      15 # number of processing clusters
-gpgpu_n_cores_per_cluster                    1 # number of simd cores per cluster
-gpgpu_n_cluster_ejection_buffer_size                    8 # number of packets in ejection buffer
-gpgpu_n_ldst_response_buffer_size                    2 # number of response packets in ld/st unit ejection buffer
-gpgpu_shmem_size                   16384 # Size of shared memory per shader core (default 16kB)
-gpgpu_shmem_size                   49152 # Size of shared memory per shader core (default 16kB)
-gpgpu_shmem_size_PrefL1                16384 # Size of shared memory per shader core (default 16kB)
-gpgpu_shmem_size_PrefShared                16384 # Size of shared memory per shader core (default 16kB)
-gpgpu_shmem_num_banks                   32 # Number of banks in the shared memory in each shader core (default 16)
-gpgpu_shmem_limited_broadcast                    0 # Limit shared memory to do one broadcast per cycle (default on)
-gpgpu_shmem_warp_parts                    1 # Number of portions a warp is divided into for shared memory bank conflict check 
-gpgpu_warpdistro_shader                   -1 # Specify which shader core to collect the warp size distribution from
-gpgpu_warp_issue_shader                    0 # Specify which shader core to collect the warp issue distribution from
-gpgpu_local_mem_map                    1 # Mapping from local memory space address to simulated GPU physical address space (default = enabled)
-gpgpu_num_reg_banks                   16 # Number of register banks (default = 8)
-gpgpu_reg_bank_use_warp_id                    0 # Use warp ID in mapping registers to banks (default = off)
-gpgpu_operand_collector_num_units_sp                    6 # number of collector units (default = 4)
-gpgpu_operand_collector_num_units_sfu                    8 # number of collector units (default = 4)
-gpgpu_operand_collector_num_units_mem                    2 # number of collector units (default = 2)
-gpgpu_operand_collector_num_units_gen                    0 # number of collector units (default = 0)
-gpgpu_operand_collector_num_in_ports_sp                    2 # number of collector unit in ports (default = 1)
-gpgpu_operand_collector_num_in_ports_sfu                    1 # number of collector unit in ports (default = 1)
-gpgpu_operand_collector_num_in_ports_mem                    1 # number of collector unit in ports (default = 1)
-gpgpu_operand_collector_num_in_ports_gen                    0 # number of collector unit in ports (default = 0)
-gpgpu_operand_collector_num_out_ports_sp                    2 # number of collector unit in ports (default = 1)
-gpgpu_operand_collector_num_out_ports_sfu                    1 # number of collector unit in ports (default = 1)
-gpgpu_operand_collector_num_out_ports_mem                    1 # number of collector unit in ports (default = 1)
-gpgpu_operand_collector_num_out_ports_gen                    0 # number of collector unit in ports (default = 0)
-gpgpu_coalesce_arch                   13 # Coalescing arch (default = 13, anything else is off for now)
-gpgpu_num_sched_per_core                    2 # Number of warp schedulers per core
-gpgpu_max_insn_issue_per_warp                    1 # Max number of instructions that can be issued per warp in one cycle by scheduler
-gpgpu_simt_core_sim_order                    1 # Select the simulation order of cores in a cluster (0=Fix, 1=Round-Robin)
-gpgpu_pipeline_widths        2,1,1,2,1,1,2 # Pipeline widths ID_OC_SP,ID_OC_SFU,ID_OC_MEM,OC_EX_SP,OC_EX_SFU,OC_EX_MEM,EX_WB
-gpgpu_num_sp_units                     2 # Number of SP units (default=1)
-gpgpu_num_sfu_units                    1 # Number of SF units (default=1)
-gpgpu_num_mem_units                    1 # Number if ldst units (default=1) WARNING: not hooked up to anything
-gpgpu_scheduler                      gto # Scheduler configuration: < lrr | gto | two_level_active > If two_level_active:<num_active_warps>:<inner_prioritization>:<outer_prioritization>For complete list of prioritization values see shader.h enum scheduler_prioritization_typeDefault: gto
-gpgpu_dram_scheduler                    1 # 0 = fifo, 1 = FR-FCFS (defaul)
-gpgpu_dram_partition_queues              8:8:8:8 # i2$:$2d:d2$:$2i
-l2_ideal                               0 # Use a ideal L2 cache that always hit
-gpgpu_cache:dl2     64:128:8,L:B:m:W,A:32:4,4:0,32 # unified banked L2 data cache config  {<nsets>:<bsize>:<assoc>,<rep>:<wr>:<alloc>:<wr_alloc>,<mshr>:<N>:<merge>,<mq>}
-gpgpu_cache:dl2_texture_only                    0 # L2 cache used for texture only
-gpgpu_n_mem                            6 # number of memory modules (e.g. memory controllers) in gpu
-gpgpu_n_sub_partition_per_mchannel                    2 # number of memory subpartition in each memory module
-gpgpu_n_mem_per_ctrlr                    2 # number of memory chips per memory controller
-gpgpu_memlatency_stat                   14 # track and display latency statistics 0x2 enables MC, 0x4 enables queue logs
-gpgpu_frfcfs_dram_sched_queue_size                   16 # 0 = unlimited (default); # entries per chip
-gpgpu_dram_return_queue_size                  116 # 0 = unlimited (default); # entries per chip
-gpgpu_dram_buswidth                    4 # default = 4 bytes (8 bytes per cycle at DDR)
-gpgpu_dram_burst_length                    8 # Burst length of each DRAM request (default = 4 data bus cycle)
-dram_data_command_freq_ratio                    4 # Frequency ratio between DRAM data bus and command bus (default = 2 times, i.e. DDR)
-gpgpu_dram_timing_opt nbk=16:CCD=2:RRD=6:RCD=12:RAS=28:RP=12:RC=40: CL=12:WL=4:CDLR=5:WR=12:nbkgrp=4:CCDL=3:RTPL=2 # DRAM timing parameters = {nbk:tCCD:tRRD:tRCD:tRAS:tRP:tRC:CL:WL:tCDLR:tWR:nbkgrp:tCCDL:tRTPL}
-rop_latency                          120 # ROP queue latency (default 85)
-dram_latency                         100 # DRAM latency (default 30)
-gpgpu_mem_addr_mapping dramid@8;00000000.00000000.00000000.00000000.0000RRRR.RRRRRRRR.BBBCCCCB.CCSSSSSS # mapping memory address to dram model {dramid@<start bit>;<memory address map>}
-gpgpu_mem_addr_test                    0 # run sweep test to check address mapping for aliased address
-gpgpu_mem_address_mask                    1 # 0 = old addressing mask, 1 = new addressing mask, 2 = new add. mask + flipped bank sel and chip sel bits
-gpuwattch_xml_file         gpuwattch.xml # GPUWattch XML file
-power_simulation_enabled                    0 # Turn on power simulator (1=On, 0=Off)
-power_per_cycle_dump                    0 # Dump detailed power output each cycle
-power_trace_enabled                    0 # produce a file for the power trace (1=On, 0=Off)
-power_trace_zlevel                     6 # Compression level of the power trace output log (0=no comp, 9=highest)
-steady_power_levels_enabled                    0 # produce a file for the steady power levels (1=On, 0=Off)
-steady_state_definition                  8:4 # allowed deviation:number of samples
-gpgpu_max_cycle                        0 # terminates gpu simulation early (0 = no limit)
-gpgpu_max_insn                         0 # terminates gpu simulation early (0 = no limit)
-gpgpu_max_cta                          0 # terminates gpu simulation early (0 = no limit)
-gpgpu_runtime_stat                   500 # display runtime statistics such as dram utilization {<freq>:<flag>}
-liveness_message_freq                    1 # Minimum number of seconds between simulation liveness messages (0 = always print)
-gpgpu_flush_l1_cache                    0 # Flush L1 cache at the end of each kernel call
-gpgpu_flush_l2_cache                    0 # Flush L2 cache at the end of each kernel call
-gpgpu_deadlock_detect                    1 # Stop the simulation at deadlock (1=on (default), 0=off)
-gpgpu_ptx_instruction_classification                    0 # if enabled will classify ptx instruction types per kernel (Max 255 kernels now)
-gpgpu_ptx_sim_mode                     0 # Select between Performance (default) or Functional simulation (1)
-gpgpu_clock_domains 700.0:700.0:700.0:924.0 # Clock Domain Frequencies in MhZ {<Core Clock>:<ICNT Clock>:<L2 Clock>:<DRAM Clock>}
-gpgpu_max_concurrent_kernel                    8 # maximum kernels that can run concurrently on GPU
-gpgpu_cflog_interval                    0 # Interval between each snapshot in control flow logger
-visualizer_enabled                     0 # Turn on visualizer output (1=On, 0=Off)
-visualizer_outputfile                 NULL # Specifies the output log file for visualizer
-visualizer_zlevel                      6 # Compression level of the visualizer output log (0=no comp, 9=highest)
-trace_enabled                          0 # Turn on traces
-trace_components                    none # comma seperated list of traces to enable. Complete list found in trace_streams.tup. Default none
-trace_sampling_core                    0 # The core which is printed using CORE_DPRINTF. Default 0
-trace_sampling_memory_partition                   -1 # The memory partition which is printed using MEMPART_DPRINTF. Default -1 (i.e. all)
-enable_ptx_file_line_stats                    1 # Turn on PTX source line statistic profiling. (1 = On)
-ptx_line_stats_filename gpgpu_inst_stats.txt # Output file for PTX source line statistics.
-save_embedded_ptx                      0 # saves ptx files embedded in binary as <n>.ptx
-keep                                   0 # keep intermediate files created by GPGPU-Sim when interfacing with external programs
-gpgpu_ptx_save_converted_ptxplus                    0 # Saved converted ptxplus to a file
-ptx_opcode_latency_int         4,13,4,5,145 # Opcode latencies for integers <ADD,MAX,MUL,MAD,DIV>Default 1,1,19,25,145
-ptx_opcode_latency_fp          4,13,4,5,39 # Opcode latencies for single precision floating points <ADD,MAX,MUL,MAD,DIV>Default 1,1,1,1,30
-ptx_opcode_latency_dp         8,19,8,8,330 # Opcode latencies for double precision floating points <ADD,MAX,MUL,MAD,DIV>Default 8,8,8,8,335
-ptx_opcode_initiation_int            1,2,2,1,8 # Opcode initiation intervals for integers <ADD,MAX,MUL,MAD,DIV>Default 1,1,4,4,32
-ptx_opcode_initiation_fp            1,2,1,1,4 # Opcode initiation intervals for single precision floating points <ADD,MAX,MUL,MAD,DIV>Default 1,1,1,1,5
-ptx_opcode_initiation_dp         8,16,8,8,130 # Opcode initiation intervals for double precision floating points <ADD,MAX,MUL,MAD,DIV>Default 8,8,8,8,130
DRAM Timing Options:
nbk                                    16 # number of banks
CCD                                     2 # column to column delay
RRD                                     6 # minimal delay between activation of rows in different banks
RCD                                    12 # row to column delay
RAS                                    28 # time needed to activate row
RP                                     12 # time needed to precharge (deactivate) row
RC                                     40 # row cycle time
CDLR                                    5 # switching from write to read (changes tWTR)
WR                                     12 # last data-in to row precharge
CL                                     12 # CAS latency
WL                                      4 # Write latency
nbkgrp                                  4 # number of bank groups
CCDL                                    3 # column to column delay between accesses to different bank groups
RTPL                                    2 # read to precharge delay between accesses to different bank groups
Total number of memory sub partition = 12
addr_dec_mask[CHIP]  = 0000000000000000 	high:64 low:0
addr_dec_mask[BK]    = 000000000000e100 	high:16 low:8
addr_dec_mask[ROW]   = 000000000fff0000 	high:28 low:16
addr_dec_mask[COL]   = 0000000000001eff 	high:13 low:0
addr_dec_mask[BURST] = 000000000000003f 	high:6 low:0
sub_partition_id_mask = 0000000000000100
GPGPU-Sim uArch: clock freqs: 700000000.000000:700000000.000000:700000000.000000:924000000.000000
GPGPU-Sim uArch: clock periods: 0.00000000142857142857:0.00000000142857142857:0.00000000142857142857:0.00000000108225108225
*** Initializing Memory Statistics ***
GPGPU-Sim uArch: interconnect node map (shaderID+MemID to icntID)
GPGPU-Sim uArch: Memory nodes ID start from index: 15
GPGPU-Sim uArch:    0   1   2   3   4
GPGPU-Sim uArch:    5   6   7   8   9
GPGPU-Sim uArch:   10  11  12  13  14
GPGPU-Sim uArch:   15  16  17  18  19
GPGPU-Sim uArch:   20  21  22  23  24
GPGPU-Sim uArch:   25  26
GPGPU-Sim uArch: interconnect node reverse map (icntID to shaderID+MemID)
GPGPU-Sim uArch: Memory nodes start from ID: 15
GPGPU-Sim uArch:    0   1   2   3   4
GPGPU-Sim uArch:    5   6   7   8   9
GPGPU-Sim uArch:   10  11  12  13  14
GPGPU-Sim uArch:   15  16  17  18  19
GPGPU-Sim uArch:   20  21  22  23  24
GPGPU-Sim uArch:   25  26
35e4989e7e2383a1c0ff536b7ce586fc  /afs/tu-berlin.de/home/t/tobias.fuchs/irb-ubuntu/Dokumente/new4/MCS1415/CUDA/assignment1/gpumcs/gpu_out
GPGPU-Sim uArch: performance model initialization complete.
GPGPU-Sim PTX: __cudaRegisterFatBinary, fat_cubin_handle = 1, filename=gpu_julia.cu
self exe links to: /afs/tu-berlin.de/home/t/tobias.fuchs/irb-ubuntu/Dokumente/new4/MCS1415/CUDA/assignment1/gpumcs/gpu_out
Running md5sum using "md5sum /afs/tu-berlin.de/home/t/tobias.fuchs/irb-ubuntu/Dokumente/new4/MCS1415/CUDA/assignment1/gpumcs/gpu_out "
Running cuobjdump using "$CUDA_INSTALL_PATH/bin/cuobjdump -ptx -elf -sass /afs/tu-berlin.de/home/t/tobias.fuchs/irb-ubuntu/Dokumente/new4/MCS1415/CUDA/assignment1/gpumcs/gpu_out > _cuobjdump_complete_output_Z0Rr3I"
Parsing file _cuobjdump_complete_output_Z0Rr3I
######### cuobjdump parser ########
## Adding new section ELF
Adding arch: sm_10
Adding identifier: gpu_julia.cu
## Adding new section PTX
Adding ptx filename: _cuobjdump_1.ptx
Adding arch: sm_10
Adding identifier: gpu_julia.cu
Done parsing!!!
GPGPU-Sim PTX: __cudaRegisterFunction _Z12calc_fractaliiffPh : hostFun 0x0x401073, fat_cubin_handle = 1
GPGPU-Sim PTX: instruction assembly for function '_Z12calc_fractaliiffPh'...   done.
GPGPU-Sim PTX: finding reconvergence points for '_Z12calc_fractaliiffPh'...
GPGPU-Sim PTX: Finding dominators for '_Z12calc_fractaliiffPh'...
GPGPU-Sim PTX: Finding immediate dominators for '_Z12calc_fractaliiffPh'...
GPGPU-Sim PTX: Finding postdominators for '_Z12calc_fractaliiffPh'...
GPGPU-Sim PTX: Finding immediate postdominators for '_Z12calc_fractaliiffPh'...
GPGPU-Sim PTX: pre-decoding instructions for '_Z12calc_fractaliiffPh'...
GPGPU-Sim PTX: reconvergence points for _Z12calc_fractaliiffPh...
GPGPU-Sim PTX:  1 (potential) branch divergence @  PC=0x100 (_1.ptx:101) @%p1 bra $Lt_0_258;
GPGPU-Sim PTX:    immediate post dominator      @  PC=0x158 (_1.ptx:117) ld.param.s32 %r4, [__cudaparm__Z12calc_fractaliiffPh_width];
GPGPU-Sim PTX:  2 (potential) branch divergence @  PC=0x150 (_1.ptx:114) @%p2 bra $Lt_0_2306;
GPGPU-Sim PTX:    immediate post dominator      @  PC=0x158 (_1.ptx:117) ld.param.s32 %r4, [__cudaparm__Z12calc_fractaliiffPh_width];
GPGPU-Sim PTX: ... end of reconvergence points for _Z12calc_fractaliiffPh
GPGPU-Sim PTX: ... done pre-decoding instructions for '_Z12calc_fractaliiffPh'.
GPGPU-Sim PTX: finished parsing EMBEDDED .ptx file _1.ptx
Adding _cuobjdump_1.ptx with cubin handle 1
GPGPU-Sim PTX: extracting embedded .ptx to temporary file "_ptx_Oo9jFd"
Running: cat _ptx_Oo9jFd | sed 's/.version 1.5/.version 1.4/' | sed 's/, texmode_independent//' | sed 's/\(\.extern \.const\[1\] .b8 \w\+\)\[\]/\1\[1\]/' | sed 's/const\[.\]/const\[0\]/g' > _ptx2_ceLBiI
GPGPU-Sim PTX: generating ptxinfo using "$CUDA_INSTALL_PATH/bin/ptxas --gpu-name=sm_20 -v _ptx2_ceLBiI --output-file  /dev/null 2> _ptx_Oo9jFdinfo"
GPGPU-Sim PTX: Kernel '_Z12calc_fractaliiffPh' : regs=9, lmem=0, smem=0, cmem=60
GPGPU-Sim PTX: removing ptxinfo using "rm -f _ptx_Oo9jFd _ptx2_ceLBiI _ptx_Oo9jFdinfo"
GPGPU-Sim PTX: loading globals with explicit initializers... 
GPGPU-Sim PTX: finished loading globals (0 bytes total).
GPGPU-Sim PTX: loading constants with explicit initializers...  done.

GPGPU-Sim PTX: cudaLaunch for 0x0x401073 (mode=performance simulation) on stream 0
GPGPU-Sim PTX: pushing kernel '_Z12calc_fractaliiffPh' to stream 0, gridDim= (256,1,1) blockDim = (1,256,1) 
kernel '_Z12calc_fractaliiffPh' transfer to GPU hardware scheduler
GPGPU-Sim uArch: Shader 1 bind to kernel 1 '_Z12calc_fractaliiffPh'
GPGPU-Sim uArch: CTA/core = 6, limited by: threads
GPGPU-Sim uArch: core:  1, cta: 0 initialized @(1,0)
GPGPU-Sim uArch: Shader 2 bind to kernel 1 '_Z12calc_fractaliiffPh'
GPGPU-Sim uArch: core:  2, cta: 0 initialized @(1,0)
GPGPU-Sim uArch: Shader 3 bind to kernel 1 '_Z12calc_fractaliiffPh'
GPGPU-Sim uArch: core:  3, cta: 0 initialized @(1,0)
GPGPU-Sim uArch: Shader 4 bind to kernel 1 '_Z12calc_fractaliiffPh'
GPGPU-Sim uArch: core:  4, cta: 0 initialized @(1,0)
GPGPU-Sim uArch: Shader 5 bind to kernel 1 '_Z12calc_fractaliiffPh'
GPGPU-Sim uArch: core:  5, cta: 0 initialized @(1,0)
GPGPU-Sim uArch: Shader 6 bind to kernel 1 '_Z12calc_fractaliiffPh'
GPGPU-Sim uArch: core:  6, cta: 0 initialized @(1,0)
GPGPU-Sim uArch: Shader 7 bind to kernel 1 '_Z12calc_fractaliiffPh'
GPGPU-Sim uArch: core:  7, cta: 0 initialized @(1,0)
GPGPU-Sim uArch: Shader 8 bind to kernel 1 '_Z12calc_fractaliiffPh'
GPGPU-Sim uArch: core:  8, cta: 0 initialized @(1,0)
GPGPU-Sim uArch: Shader 9 bind to kernel 1 '_Z12calc_fractaliiffPh'
GPGPU-Sim uArch: core:  9, cta: 0 initialized @(1,0)
GPGPU-Sim uArch: Shader 10 bind to kernel 1 '_Z12calc_fractaliiffPh'
GPGPU-Sim uArch: core: 10, cta: 0 initialized @(1,0)
GPGPU-Sim uArch: Shader 11 bind to kernel 1 '_Z12calc_fractaliiffPh'
GPGPU-Sim uArch: core: 11, cta: 0 initialized @(1,0)
GPGPU-Sim uArch: Shader 12 bind to kernel 1 '_Z12calc_fractaliiffPh'
GPGPU-Sim uArch: core: 12, cta: 0 initialized @(1,0)
GPGPU-Sim uArch: Shader 13 bind to kernel 1 '_Z12calc_fractaliiffPh'
GPGPU-Sim uArch: core: 13, cta: 0 initialized @(1,0)
GPGPU-Sim uArch: Shader 14 bind to kernel 1 '_Z12calc_fractaliiffPh'
GPGPU-Sim uArch: core: 14, cta: 0 initialized @(1,0)
GPGPU-Sim uArch: Shader 0 bind to kernel 1 '_Z12calc_fractaliiffPh'
GPGPU-Sim uArch: core:  0, cta: 0 initialized @(1,0)
GPGPU-Sim uArch: core:  1, cta: 1 initialized @(2,0)
GPGPU-Sim uArch: core:  2, cta: 1 initialized @(2,0)
GPGPU-Sim uArch: core:  3, cta: 1 initialized @(2,0)
GPGPU-Sim uArch: core:  4, cta: 1 initialized @(2,0)
GPGPU-Sim uArch: core:  5, cta: 1 initialized @(2,0)
GPGPU-Sim uArch: core:  6, cta: 1 initialized @(2,0)
GPGPU-Sim uArch: core:  7, cta: 1 initialized @(2,0)
GPGPU-Sim uArch: core:  8, cta: 1 initialized @(2,0)
GPGPU-Sim uArch: core:  9, cta: 1 initialized @(2,0)
GPGPU-Sim uArch: core: 10, cta: 1 initialized @(2,0)
GPGPU-Sim uArch: core: 11, cta: 1 initialized @(2,0)
GPGPU-Sim uArch: core: 12, cta: 1 initialized @(2,0)
GPGPU-Sim uArch: core: 13, cta: 1 initialized @(2,0)
GPGPU-Sim uArch: core: 14, cta: 1 initialized @(2,0)
GPGPU-Sim uArch: core:  0, cta: 1 initialized @(2,0)
GPGPU-Sim uArch: core:  1, cta: 2 initialized @(3,0)
GPGPU-Sim uArch: core:  2, cta: 2 initialized @(3,0)
GPGPU-Sim uArch: core:  3, cta: 2 initialized @(3,0)
GPGPU-Sim uArch: core:  4, cta: 2 initialized @(3,0)
GPGPU-Sim uArch: core:  5, cta: 2 initialized @(3,0)
GPGPU-Sim uArch: core:  6, cta: 2 initialized @(3,0)
GPGPU-Sim uArch: core:  7, cta: 2 initialized @(3,0)
GPGPU-Sim uArch: core:  8, cta: 2 initialized @(3,0)
GPGPU-Sim uArch: core:  9, cta: 2 initialized @(3,0)
GPGPU-Sim uArch: core: 10, cta: 2 initialized @(3,0)
GPGPU-Sim uArch: core: 11, cta: 2 initialized @(3,0)
GPGPU-Sim uArch: core: 12, cta: 2 initialized @(3,0)
GPGPU-Sim uArch: core: 13, cta: 2 initialized @(3,0)
GPGPU-Sim uArch: core: 14, cta: 2 initialized @(3,0)
GPGPU-Sim uArch: core:  0, cta: 2 initialized @(3,0)
GPGPU-Sim uArch: core:  1, cta: 3 initialized @(4,0)
GPGPU-Sim uArch: core:  2, cta: 3 initialized @(4,0)
GPGPU-Sim uArch: core:  3, cta: 3 initialized @(4,0)
GPGPU-Sim uArch: core:  4, cta: 3 initialized @(4,0)
GPGPU-Sim uArch: core:  5, cta: 3 initialized @(4,0)
GPGPU-Sim uArch: core:  6, cta: 3 initialized @(4,0)
GPGPU-Sim uArch: core:  7, cta: 3 initialized @(4,0)
GPGPU-Sim uArch: core:  8, cta: 3 initialized @(4,0)
GPGPU-Sim uArch: core:  9, cta: 3 initialized @(4,0)
GPGPU-Sim uArch: core: 10, cta: 3 initialized @(4,0)
GPGPU-Sim uArch: core: 11, cta: 3 initialized @(4,0)
GPGPU-Sim uArch: core: 12, cta: 3 initialized @(4,0)
GPGPU-Sim uArch: core: 13, cta: 3 initialized @(4,0)
GPGPU-Sim uArch: core: 14, cta: 3 initialized @(4,0)
GPGPU-Sim uArch: core:  0, cta: 3 initialized @(4,0)
GPGPU-Sim uArch: core:  1, cta: 4 initialized @(5,0)
GPGPU-Sim uArch: core:  2, cta: 4 initialized @(5,0)
GPGPU-Sim uArch: core:  3, cta: 4 initialized @(5,0)
GPGPU-Sim uArch: core:  4, cta: 4 initialized @(5,0)
GPGPU-Sim uArch: core:  5, cta: 4 initialized @(5,0)
GPGPU-Sim uArch: core:  6, cta: 4 initialized @(5,0)
GPGPU-Sim uArch: core:  7, cta: 4 initialized @(5,0)
GPGPU-Sim uArch: core:  8, cta: 4 initialized @(5,0)
GPGPU-Sim uArch: core:  9, cta: 4 initialized @(5,0)
GPGPU-Sim uArch: core: 10, cta: 4 initialized @(5,0)
GPGPU-Sim uArch: core: 11, cta: 4 initialized @(5,0)
GPGPU-Sim uArch: core: 12, cta: 4 initialized @(5,0)
GPGPU-Sim uArch: core: 13, cta: 4 initialized @(5,0)
GPGPU-Sim uArch: core: 14, cta: 4 initialized @(5,0)
GPGPU-Sim uArch: core:  0, cta: 4 initialized @(5,0)
GPGPU-Sim uArch: core:  1, cta: 5 initialized @(6,0)
GPGPU-Sim uArch: core:  2, cta: 5 initialized @(6,0)
GPGPU-Sim uArch: core:  3, cta: 5 initialized @(6,0)
GPGPU-Sim uArch: core:  4, cta: 5 initialized @(6,0)
GPGPU-Sim uArch: core:  5, cta: 5 initialized @(6,0)
GPGPU-Sim uArch: core:  6, cta: 5 initialized @(6,0)
GPGPU-Sim uArch: core:  7, cta: 5 initialized @(6,0)
GPGPU-Sim uArch: core:  8, cta: 5 initialized @(6,0)
GPGPU-Sim uArch: core:  9, cta: 5 initialized @(6,0)
GPGPU-Sim uArch: core: 10, cta: 5 initialized @(6,0)
GPGPU-Sim uArch: core: 11, cta: 5 initialized @(6,0)
GPGPU-Sim uArch: core: 12, cta: 5 initialized @(6,0)
GPGPU-Sim uArch: core: 13, cta: 5 initialized @(6,0)
GPGPU-Sim uArch: core: 14, cta: 5 initialized @(6,0)
GPGPU-Sim uArch: core:  0, cta: 5 initialized @(6,0)
GPGPU-Sim PTX: 100000 instructions simulated : ctaid=(33,0,0) tid=(0,63,0)
GPGPU-Sim uArch: cycles simulated: 500  inst.: 137568 (ipc=275.1) sim_rate=137568 (inst/sec) elapsed = 0:0:00:01 / Fri Jan 16 06:23:57 2015
GPGPU-Sim PTX: 200000 instructions simulated : ctaid=(1,0,0) tid=(0,255,0)
GPGPU-Sim PTX: 300000 instructions simulated : ctaid=(1,0,0) tid=(0,255,0)
GPGPU-Sim PTX: 400000 instructions simulated : ctaid=(11,0,0) tid=(0,31,0)
GPGPU-Sim PTX: 500000 instructions simulated : ctaid=(78,0,0) tid=(0,223,0)
GPGPU-Sim PTX: 600000 instructions simulated : ctaid=(70,0,0) tid=(0,31,0)
GPGPU-Sim PTX: 700000 instructions simulated : ctaid=(54,0,0) tid=(0,63,0)
GPGPU-Sim uArch: cycles simulated: 1500  inst.: 717696 (ipc=478.5) sim_rate=358848 (inst/sec) elapsed = 0:0:00:02 / Fri Jan 16 06:23:59 2015
GPGPU-Sim PTX: 800000 instructions simulated : ctaid=(47,0,0) tid=(0,255,0)
GPGPU-Sim PTX: 900000 instructions simulated : ctaid=(42,0,0) tid=(0,223,0)
GPGPU-Sim PTX: 1000000 instructions simulated : ctaid=(4,0,0) tid=(0,159,0)
GPGPU-Sim uArch: cycles simulated: 2000  inst.: 1046944 (ipc=523.5) sim_rate=348981 (inst/sec) elapsed = 0:0:00:03 / Fri Jan 16 06:24:00 2015
GPGPU-Sim PTX: 1100000 instructions simulated : ctaid=(26,0,0) tid=(0,31,0)
GPGPU-Sim PTX: 1200000 instructions simulated : ctaid=(23,0,0) tid=(0,85,0)
GPGPU-Sim PTX: 1300000 instructions simulated : ctaid=(12,0,0) tid=(0,33,0)
GPGPU-Sim PTX: 1400000 instructions simulated : ctaid=(5,0,0) tid=(0,242,0)
GPGPU-Sim PTX: 1500000 instructions simulated : ctaid=(26,0,0) tid=(0,36,0)
GPGPU-Sim PTX: 1600000 instructions simulated : ctaid=(16,0,0) tid=(0,44,0)
GPGPU-Sim PTX: 1700000 instructions simulated : ctaid=(43,0,0) tid=(0,77,0)
GPGPU-Sim uArch: cycles simulated: 3000  inst.: 1688674 (ipc=562.9) sim_rate=422168 (inst/sec) elapsed = 0:0:00:04 / Fri Jan 16 06:24:01 2015
GPGPU-Sim PTX: 1800000 instructions simulated : ctaid=(9,0,0) tid=(0,45,0)
GPGPU-Sim PTX: 1900000 instructions simulated : ctaid=(32,0,0) tid=(0,166,0)
GPGPU-Sim uArch: cycles simulated: 3500  inst.: 1882074 (ipc=537.7) sim_rate=376414 (inst/sec) elapsed = 0:0:00:05 / Fri Jan 16 06:24:02 2015
GPGPU-Sim PTX: 2000000 instructions simulated : ctaid=(19,0,0) tid=(0,75,0)
GPGPU-Sim PTX: 2100000 instructions simulated : ctaid=(30,0,0) tid=(0,189,0)
GPGPU-Sim PTX: 2200000 instructions simulated : ctaid=(25,0,0) tid=(0,155,0)
GPGPU-Sim PTX: 2300000 instructions simulated : ctaid=(33,0,0) tid=(0,60,0)
GPGPU-Sim uArch: cycles simulated: 4000  inst.: 2195577 (ipc=548.9) sim_rate=365929 (inst/sec) elapsed = 0:0:00:06 / Fri Jan 16 06:24:03 2015
GPGPU-Sim PTX: 2400000 instructions simulated : ctaid=(11,0,0) tid=(0,53,0)
GPGPU-Sim PTX: 2500000 instructions simulated : ctaid=(31,0,0) tid=(0,53,0)
GPGPU-Sim PTX: 2600000 instructions simulated : ctaid=(46,0,0) tid=(0,23,0)
GPGPU-Sim PTX: 2700000 instructions simulated : ctaid=(32,0,0) tid=(0,141,0)
GPGPU-Sim PTX: 2800000 instructions simulated : ctaid=(26,0,0) tid=(0,29,0)
GPGPU-Sim PTX: 2900000 instructions simulated : ctaid=(16,0,0) tid=(0,82,0)
GPGPU-Sim uArch: cycles simulated: 5000  inst.: 2797657 (ipc=559.5) sim_rate=399665 (inst/sec) elapsed = 0:0:00:07 / Fri Jan 16 06:24:04 2015
GPGPU-Sim PTX: 3000000 instructions simulated : ctaid=(10,0,0) tid=(0,124,0)
GPGPU-Sim PTX: 3100000 instructions simulated : ctaid=(8,0,0) tid=(0,115,0)
GPGPU-Sim PTX: 3200000 instructions simulated : ctaid=(18,0,0) tid=(0,110,0)
GPGPU-Sim uArch: cycles simulated: 5500  inst.: 3073565 (ipc=558.8) sim_rate=384195 (inst/sec) elapsed = 0:0:00:08 / Fri Jan 16 06:24:05 2015
GPGPU-Sim PTX: 3300000 instructions simulated : ctaid=(4,0,0) tid=(0,117,0)
GPGPU-Sim PTX: 3400000 instructions simulated : ctaid=(21,0,0) tid=(0,83,0)
GPGPU-Sim PTX: 3500000 instructions simulated : ctaid=(9,0,0) tid=(0,46,0)
GPGPU-Sim PTX: 3600000 instructions simulated : ctaid=(29,0,0) tid=(0,132,0)
GPGPU-Sim PTX: 3700000 instructions simulated : ctaid=(33,0,0) tid=(0,40,0)
GPGPU-Sim uArch: cycles simulated: 6500  inst.: 3520849 (ipc=541.7) sim_rate=391205 (inst/sec) elapsed = 0:0:00:09 / Fri Jan 16 06:24:06 2015
GPGPU-Sim PTX: 3800000 instructions simulated : ctaid=(20,0,0) tid=(0,38,0)
GPGPU-Sim PTX: 3900000 instructions simulated : ctaid=(13,0,0) tid=(0,170,0)
GPGPU-Sim PTX: 4000000 instructions simulated : ctaid=(30,0,0) tid=(0,201,0)
GPGPU-Sim PTX: 4100000 instructions simulated : ctaid=(23,0,0) tid=(0,74,0)
GPGPU-Sim uArch: cycles simulated: 7500  inst.: 3927733 (ipc=523.7) sim_rate=392773 (inst/sec) elapsed = 0:0:00:10 / Fri Jan 16 06:24:07 2015
GPGPU-Sim PTX: 4200000 instructions simulated : ctaid=(28,0,0) tid=(0,74,0)
GPGPU-Sim PTX: 4300000 instructions simulated : ctaid=(9,0,0) tid=(0,121,0)
GPGPU-Sim uArch: cycles simulated: 8000  inst.: 4111033 (ipc=513.9) sim_rate=373730 (inst/sec) elapsed = 0:0:00:11 / Fri Jan 16 06:24:08 2015
GPGPU-Sim PTX: 4400000 instructions simulated : ctaid=(21,0,0) tid=(0,26,0)
GPGPU-Sim PTX: 4500000 instructions simulated : ctaid=(7,0,0) tid=(0,165,0)
GPGPU-Sim PTX: 4600000 instructions simulated : ctaid=(33,0,0) tid=(0,166,0)
GPGPU-Sim PTX: 4700000 instructions simulated : ctaid=(17,0,0) tid=(0,180,0)
GPGPU-Sim uArch: cycles simulated: 9000  inst.: 4444209 (ipc=493.8) sim_rate=370350 (inst/sec) elapsed = 0:0:00:12 / Fri Jan 16 06:24:09 2015
GPGPU-Sim PTX: 4800000 instructions simulated : ctaid=(23,0,0) tid=(0,175,0)
GPGPU-Sim PTX: 4900000 instructions simulated : ctaid=(39,0,0) tid=(0,76,0)
GPGPU-Sim PTX: 5000000 instructions simulated : ctaid=(33,0,0) tid=(0,192,0)
GPGPU-Sim PTX: 5100000 instructions simulated : ctaid=(47,0,0) tid=(0,53,0)
GPGPU-Sim uArch: cycles simulated: 10500  inst.: 4861263 (ipc=463.0) sim_rate=373943 (inst/sec) elapsed = 0:0:00:13 / Fri Jan 16 06:24:10 2015
GPGPU-Sim PTX: 5200000 instructions simulated : ctaid=(33,0,0) tid=(0,186,0)
GPGPU-Sim PTX: 5300000 instructions simulated : ctaid=(55,0,0) tid=(0,245,0)
GPGPU-Sim uArch: cycles simulated: 11500  inst.: 5094775 (ipc=443.0) sim_rate=363912 (inst/sec) elapsed = 0:0:00:14 / Fri Jan 16 06:24:11 2015
GPGPU-Sim PTX: 5400000 instructions simulated : ctaid=(43,0,0) tid=(0,132,0)
GPGPU-Sim PTX: 5500000 instructions simulated : ctaid=(32,0,0) tid=(0,73,0)
GPGPU-Sim PTX: 5600000 instructions simulated : ctaid=(46,0,0) tid=(0,212,0)
GPGPU-Sim uArch: cycles simulated: 12500  inst.: 5315535 (ipc=425.2) sim_rate=354369 (inst/sec) elapsed = 0:0:00:15 / Fri Jan 16 06:24:12 2015
GPGPU-Sim PTX: 5700000 instructions simulated : ctaid=(36,0,0) tid=(0,145,0)
GPGPU-Sim PTX: 5800000 instructions simulated : ctaid=(58,0,0) tid=(0,35,0)
GPGPU-Sim uArch: cycles simulated: 13500  inst.: 5518528 (ipc=408.8) sim_rate=344908 (inst/sec) elapsed = 0:0:00:16 / Fri Jan 16 06:24:13 2015
GPGPU-Sim PTX: 5900000 instructions simulated : ctaid=(46,0,0) tid=(0,134,0)
GPGPU-Sim PTX: 6000000 instructions simulated : ctaid=(35,0,0) tid=(0,200,0)
GPGPU-Sim uArch: cycles simulated: 14500  inst.: 5707190 (ipc=393.6) sim_rate=335717 (inst/sec) elapsed = 0:0:00:17 / Fri Jan 16 06:24:14 2015
GPGPU-Sim PTX: 6100000 instructions simulated : ctaid=(23,0,0) tid=(0,130,0)
GPGPU-Sim PTX: 6200000 instructions simulated : ctaid=(39,0,0) tid=(0,207,0)
GPGPU-Sim uArch: cycles simulated: 15500  inst.: 5889470 (ipc=380.0) sim_rate=327192 (inst/sec) elapsed = 0:0:00:18 / Fri Jan 16 06:24:15 2015
GPGPU-Sim PTX: 6300000 instructions simulated : ctaid=(42,0,0) tid=(0,161,0)
GPGPU-Sim PTX: 6400000 instructions simulated : ctaid=(25,0,0) tid=(0,172,0)
GPGPU-Sim uArch: cycles simulated: 16500  inst.: 6078947 (ipc=368.4) sim_rate=319944 (inst/sec) elapsed = 0:0:00:19 / Fri Jan 16 06:24:16 2015
GPGPU-Sim PTX: 6500000 instructions simulated : ctaid=(50,0,0) tid=(0,77,0)
GPGPU-Sim PTX: 6600000 instructions simulated : ctaid=(42,0,0) tid=(0,61,0)
GPGPU-Sim PTX: 6700000 instructions simulated : ctaid=(60,0,0) tid=(0,81,0)
GPGPU-Sim uArch: Shader 1 finished CTA #0 (17700,0), 5 CTAs running
GPGPU-Sim uArch: core:  1, cta: 0 initialized @(17701,0)
GPGPU-Sim uArch: cycles simulated: 18000  inst.: 6397095 (ipc=355.4) sim_rate=319854 (inst/sec) elapsed = 0:0:00:20 / Fri Jan 16 06:24:17 2015
GPGPU-Sim PTX: 6800000 instructions simulated : ctaid=(40,0,0) tid=(0,162,0)
GPGPU-Sim PTX: 6900000 instructions simulated : ctaid=(60,0,0) tid=(0,156,0)
GPGPU-Sim PTX: 7000000 instructions simulated : ctaid=(70,0,0) tid=(0,77,0)
GPGPU-Sim uArch: cycles simulated: 19000  inst.: 6626394 (ipc=348.8) sim_rate=315542 (inst/sec) elapsed = 0:0:00:21 / Fri Jan 16 06:24:18 2015
GPGPU-Sim PTX: 7100000 instructions simulated : ctaid=(53,0,0) tid=(0,236,0)
GPGPU-Sim PTX: 7200000 instructions simulated : ctaid=(74,0,0) tid=(0,109,0)
GPGPU-Sim uArch: cycles simulated: 20000  inst.: 6872332 (ipc=343.6) sim_rate=312378 (inst/sec) elapsed = 0:0:00:22 / Fri Jan 16 06:24:19 2015
GPGPU-Sim PTX: 7300000 instructions simulated : ctaid=(56,0,0) tid=(0,106,0)
GPGPU-Sim PTX: 7400000 instructions simulated : ctaid=(46,0,0) tid=(0,197,0)
GPGPU-Sim PTX: 7500000 instructions simulated : ctaid=(48,0,0) tid=(0,24,0)
GPGPU-Sim uArch: cycles simulated: 21000  inst.: 7125888 (ipc=339.3) sim_rate=309821 (inst/sec) elapsed = 0:0:00:23 / Fri Jan 16 06:24:20 2015
GPGPU-Sim uArch: Shader 2 finished CTA #1 (21091,0), 5 CTAs running
GPGPU-Sim uArch: core:  2, cta: 1 initialized @(21092,0)
GPGPU-Sim PTX: 7600000 instructions simulated : ctaid=(44,0,0) tid=(0,214,0)
GPGPU-Sim PTX: 7700000 instructions simulated : ctaid=(32,0,0) tid=(0,33,0)
GPGPU-Sim PTX: 7800000 instructions simulated : ctaid=(69,0,0) tid=(0,71,0)
GPGPU-Sim uArch: cycles simulated: 22000  inst.: 7383026 (ipc=335.6) sim_rate=307626 (inst/sec) elapsed = 0:0:00:24 / Fri Jan 16 06:24:21 2015
GPGPU-Sim uArch: Shader 14 finished CTA #0 (22202,0), 5 CTAs running
GPGPU-Sim uArch: core: 14, cta: 0 initialized @(22203,0)
GPGPU-Sim PTX: 7900000 instructions simulated : ctaid=(55,0,0) tid=(0,122,0)
GPGPU-Sim PTX: 8000000 instructions simulated : ctaid=(40,0,0) tid=(0,145,0)
GPGPU-Sim uArch: Shader 9 finished CTA #0 (22885,0), 5 CTAs running
GPGPU-Sim uArch: core:  9, cta: 0 initialized @(22886,0)
GPGPU-Sim uArch: cycles simulated: 23000  inst.: 7631051 (ipc=331.8) sim_rate=305242 (inst/sec) elapsed = 0:0:00:25 / Fri Jan 16 06:24:22 2015
GPGPU-Sim PTX: 8100000 instructions simulated : ctaid=(60,0,0) tid=(0,155,0)
GPGPU-Sim PTX: 8200000 instructions simulated : ctaid=(56,0,0) tid=(0,104,0)
GPGPU-Sim uArch: Shader 1 finished CTA #1 (23411,0), 5 CTAs running
GPGPU-Sim uArch: core:  1, cta: 1 initialized @(23412,0)
GPGPU-Sim PTX: 8300000 instructions simulated : ctaid=(74,0,0) tid=(0,124,0)
GPGPU-Sim uArch: cycles simulated: 24000  inst.: 7883223 (ipc=328.5) sim_rate=303200 (inst/sec) elapsed = 0:0:00:26 / Fri Jan 16 06:24:23 2015
GPGPU-Sim PTX: 8400000 instructions simulated : ctaid=(62,0,0) tid=(0,84,0)
GPGPU-Sim uArch: cycles simulated: 24500  inst.: 8004066 (ipc=326.7) sim_rate=296446 (inst/sec) elapsed = 0:0:00:27 / Fri Jan 16 06:24:24 2015
GPGPU-Sim PTX: 8500000 instructions simulated : ctaid=(69,0,0) tid=(0,96,0)
GPGPU-Sim PTX: 8600000 instructions simulated : ctaid=(50,0,0) tid=(0,197,0)
GPGPU-Sim uArch: Shader 7 finished CTA #0 (25226,0), 5 CTAs running
GPGPU-Sim uArch: core:  7, cta: 0 initialized @(25227,0)
GPGPU-Sim PTX: 8700000 instructions simulated : ctaid=(40,0,0) tid=(0,217,0)
GPGPU-Sim uArch: cycles simulated: 25500  inst.: 8252737 (ipc=323.6) sim_rate=294740 (inst/sec) elapsed = 0:0:00:28 / Fri Jan 16 06:24:25 2015
GPGPU-Sim PTX: 8800000 instructions simulated : ctaid=(62,0,0) tid=(0,131,0)
GPGPU-Sim uArch: Shader 10 finished CTA #1 (25974,0), 5 CTAs running
GPGPU-Sim uArch: core: 10, cta: 1 initialized @(25975,0)
GPGPU-Sim PTX: 8900000 instructions simulated : ctaid=(70,0,0) tid=(0,17,0)
GPGPU-Sim uArch: Shader 14 finished CTA #1 (26054,0), 5 CTAs running
GPGPU-Sim uArch: core: 14, cta: 1 initialized @(26055,0)
GPGPU-Sim PTX: 9000000 instructions simulated : ctaid=(58,0,0) tid=(0,192,0)
GPGPU-Sim uArch: Shader 11 finished CTA #1 (26429,0), 5 CTAs running
GPGPU-Sim uArch: core: 11, cta: 1 initialized @(26430,0)
GPGPU-Sim uArch: cycles simulated: 26500  inst.: 8507451 (ipc=321.0) sim_rate=293360 (inst/sec) elapsed = 0:0:00:29 / Fri Jan 16 06:24:26 2015
GPGPU-Sim PTX: 9100000 instructions simulated : ctaid=(50,0,0) tid=(0,196,0)
GPGPU-Sim PTX: 9200000 instructions simulated : ctaid=(55,0,0) tid=(0,179,0)
GPGPU-Sim uArch: Shader 4 finished CTA #0 (27128,0), 5 CTAs running
GPGPU-Sim uArch: core:  4, cta: 0 initialized @(27129,0)
GPGPU-Sim PTX: 9300000 instructions simulated : ctaid=(68,0,0) tid=(0,232,0)
GPGPU-Sim uArch: cycles simulated: 27500  inst.: 8781349 (ipc=319.3) sim_rate=292711 (inst/sec) elapsed = 0:0:00:30 / Fri Jan 16 06:24:27 2015
GPGPU-Sim PTX: 9400000 instructions simulated : ctaid=(54,0,0) tid=(0,147,0)
GPGPU-Sim uArch: Shader 4 finished CTA #1 (27850,0), 5 CTAs running
GPGPU-Sim uArch: core:  4, cta: 1 initialized @(27851,0)
GPGPU-Sim uArch: Shader 0 finished CTA #0 (27910,0), 5 CTAs running
GPGPU-Sim uArch: core:  0, cta: 0 initialized @(27911,0)
GPGPU-Sim uArch: Shader 8 finished CTA #0 (28107,0), 5 CTAs running
GPGPU-Sim uArch: core:  8, cta: 0 initialized @(28108,0)
GPGPU-Sim PTX: 9500000 instructions simulated : ctaid=(49,0,0) tid=(0,198,0)
GPGPU-Sim uArch: Shader 3 finished CTA #2 (28259,0), 5 CTAs running
GPGPU-Sim uArch: core:  3, cta: 2 initialized @(28260,0)
GPGPU-Sim uArch: Shader 6 finished CTA #0 (28288,0), 5 CTAs running
GPGPU-Sim uArch: core:  6, cta: 0 initialized @(28289,0)
GPGPU-Sim PTX: 9600000 instructions simulated : ctaid=(76,0,0) tid=(0,68,0)
GPGPU-Sim uArch: cycles simulated: 28500  inst.: 9064977 (ipc=318.1) sim_rate=292418 (inst/sec) elapsed = 0:0:00:31 / Fri Jan 16 06:24:28 2015
GPGPU-Sim PTX: 9700000 instructions simulated : ctaid=(66,0,0) tid=(0,70,0)
GPGPU-Sim uArch: Shader 13 finished CTA #0 (29055,0), 5 CTAs running
GPGPU-Sim uArch: core: 13, cta: 0 initialized @(29056,0)
GPGPU-Sim PTX: 9800000 instructions simulated : ctaid=(66,0,0) tid=(0,191,0)
GPGPU-Sim uArch: Shader 2 finished CTA #0 (29133,0), 5 CTAs running
GPGPU-Sim uArch: core:  2, cta: 0 initialized @(29134,0)
GPGPU-Sim PTX: 9900000 instructions simulated : ctaid=(63,0,0) tid=(0,165,0)
GPGPU-Sim uArch: cycles simulated: 29500  inst.: 9357611 (ipc=317.2) sim_rate=292425 (inst/sec) elapsed = 0:0:00:32 / Fri Jan 16 06:24:29 2015
GPGPU-Sim uArch: Shader 10 finished CTA #0 (29692,0), 5 CTAs running
GPGPU-Sim uArch: core: 10, cta: 0 initialized @(29693,0)
GPGPU-Sim PTX: 10000000 instructions simulated : ctaid=(84,0,0) tid=(0,38,0)
GPGPU-Sim uArch: Shader 6 finished CTA #1 (29769,0), 5 CTAs running
GPGPU-Sim uArch: core:  6, cta: 1 initialized @(29770,0)
GPGPU-Sim PTX: 10100000 instructions simulated : ctaid=(53,0,0) tid=(0,144,0)
GPGPU-Sim PTX: 10200000 instructions simulated : ctaid=(67,0,0) tid=(0,178,0)
GPGPU-Sim uArch: Shader 6 finished CTA #2 (30461,0), 5 CTAs running
GPGPU-Sim uArch: core:  6, cta: 2 initialized @(30462,0)
GPGPU-Sim uArch: cycles simulated: 30500  inst.: 9638537 (ipc=316.0) sim_rate=292076 (inst/sec) elapsed = 0:0:00:33 / Fri Jan 16 06:24:30 2015
GPGPU-Sim uArch: Shader 5 finished CTA #1 (30597,0), 5 CTAs running
GPGPU-Sim uArch: core:  5, cta: 1 initialized @(30598,0)
GPGPU-Sim PTX: 10300000 instructions simulated : ctaid=(76,0,0) tid=(0,253,0)
GPGPU-Sim uArch: Shader 3 finished CTA #0 (30949,0), 5 CTAs running
GPGPU-Sim uArch: core:  3, cta: 0 initialized @(30950,0)
GPGPU-Sim PTX: 10400000 instructions simulated : ctaid=(82,0,0) tid=(0,25,0)
GPGPU-Sim uArch: Shader 2 finished CTA #2 (31175,0), 5 CTAs running
GPGPU-Sim uArch: core:  2, cta: 2 initialized @(31176,0)
GPGPU-Sim PTX: 10500000 instructions simulated : ctaid=(57,0,0) tid=(0,193,0)
GPGPU-Sim uArch: cycles simulated: 31500  inst.: 9912271 (ipc=314.7) sim_rate=291537 (inst/sec) elapsed = 0:0:00:34 / Fri Jan 16 06:24:31 2015
GPGPU-Sim PTX: 10600000 instructions simulated : ctaid=(77,0,0) tid=(0,188,0)
GPGPU-Sim uArch: Shader 11 finished CTA #0 (32093,0), 5 CTAs running
GPGPU-Sim uArch: core: 11, cta: 0 initialized @(32094,0)
GPGPU-Sim uArch: Shader 4 finished CTA #2 (32162,0), 5 CTAs running
GPGPU-Sim uArch: core:  4, cta: 2 initialized @(32163,0)
GPGPU-Sim PTX: 10700000 instructions simulated : ctaid=(80,0,0) tid=(0,5,0)
GPGPU-Sim uArch: Shader 12 finished CTA #1 (32275,0), 5 CTAs running
GPGPU-Sim uArch: core: 12, cta: 1 initialized @(32276,0)
GPGPU-Sim PTX: 10800000 instructions simulated : ctaid=(80,0,0) tid=(0,126,0)
GPGPU-Sim uArch: cycles simulated: 32500  inst.: 10178283 (ipc=313.2) sim_rate=290808 (inst/sec) elapsed = 0:0:00:35 / Fri Jan 16 06:24:32 2015
GPGPU-Sim uArch: Shader 1 finished CTA #2 (32725,0), 5 CTAs running
GPGPU-Sim uArch: core:  1, cta: 2 initialized @(32726,0)
GPGPU-Sim uArch: Shader 12 finished CTA #0 (32789,0), 5 CTAs running
GPGPU-Sim uArch: core: 12, cta: 0 initialized @(32790,0)
GPGPU-Sim PTX: 10900000 instructions simulated : ctaid=(89,0,0) tid=(0,59,0)
GPGPU-Sim PTX: 11000000 instructions simulated : ctaid=(52,0,0) tid=(0,193,0)
GPGPU-Sim PTX: 11100000 instructions simulated : ctaid=(66,0,0) tid=(0,121,0)
GPGPU-Sim uArch: cycles simulated: 33500  inst.: 10462805 (ipc=312.3) sim_rate=290633 (inst/sec) elapsed = 0:0:00:36 / Fri Jan 16 06:24:33 2015
GPGPU-Sim uArch: Shader 3 finished CTA #1 (33596,0), 5 CTAs running
GPGPU-Sim uArch: core:  3, cta: 1 initialized @(33597,0)
GPGPU-Sim uArch: Shader 0 finished CTA #1 (33663,0), 5 CTAs running
GPGPU-Sim uArch: core:  0, cta: 1 initialized @(33664,0)
GPGPU-Sim PTX: 11200000 instructions simulated : ctaid=(75,0,0) tid=(0,85,0)
GPGPU-Sim uArch: Shader 9 finished CTA #1 (34026,0), 5 CTAs running
GPGPU-Sim uArch: core:  9, cta: 1 initialized @(34027,0)
GPGPU-Sim uArch: Shader 5 finished CTA #0 (34094,0), 5 CTAs running
GPGPU-Sim uArch: core:  5, cta: 0 initialized @(34095,0)
GPGPU-Sim PTX: 11300000 instructions simulated : ctaid=(70,0,0) tid=(0,155,0)
GPGPU-Sim uArch: Shader 8 finished CTA #1 (34372,0), 5 CTAs running
GPGPU-Sim uArch: core:  8, cta: 1 initialized @(34373,0)
GPGPU-Sim PTX: 11400000 instructions simulated : ctaid=(95,0,0) tid=(0,62,0)
GPGPU-Sim uArch: cycles simulated: 34500  inst.: 10762610 (ipc=312.0) sim_rate=290881 (inst/sec) elapsed = 0:0:00:37 / Fri Jan 16 06:24:34 2015
GPGPU-Sim uArch: Shader 7 finished CTA #1 (34625,0), 5 CTAs running
GPGPU-Sim uArch: core:  7, cta: 1 initialized @(34626,0)
GPGPU-Sim PTX: 11500000 instructions simulated : ctaid=(85,0,0) tid=(0,24,0)
GPGPU-Sim PTX: 11600000 instructions simulated : ctaid=(48,0,0) tid=(0,141,0)
GPGPU-Sim uArch: Shader 9 finished CTA #2 (35294,0), 5 CTAs running
GPGPU-Sim uArch: core:  9, cta: 2 initialized @(35295,0)
GPGPU-Sim PTX: 11700000 instructions simulated : ctaid=(75,0,0) tid=(0,159,0)
GPGPU-Sim uArch: cycles simulated: 35500  inst.: 11050088 (ipc=311.3) sim_rate=290791 (inst/sec) elapsed = 0:0:00:38 / Fri Jan 16 06:24:35 2015
GPGPU-Sim PTX: 11800000 instructions simulated : ctaid=(72,0,0) tid=(0,188,0)
GPGPU-Sim PTX: 11900000 instructions simulated : ctaid=(79,0,0) tid=(0,150,0)
GPGPU-Sim PTX: 12000000 instructions simulated : ctaid=(90,0,0) tid=(0,114,0)
GPGPU-Sim uArch: cycles simulated: 36500  inst.: 11337988 (ipc=310.6) sim_rate=290717 (inst/sec) elapsed = 0:0:00:39 / Fri Jan 16 06:24:36 2015
GPGPU-Sim PTX: 12100000 instructions simulated : ctaid=(48,0,0) tid=(0,210,0)
GPGPU-Sim PTX: 12200000 instructions simulated : ctaid=(77,0,0) tid=(0,138,0)
GPGPU-Sim PTX: 12300000 instructions simulated : ctaid=(61,0,0) tid=(0,114,0)
GPGPU-Sim uArch: Shader 7 finished CTA #2 (37386,0), 5 CTAs running
GPGPU-Sim uArch: core:  7, cta: 2 initialized @(37387,0)
GPGPU-Sim uArch: cycles simulated: 37500  inst.: 11630181 (ipc=310.1) sim_rate=290754 (inst/sec) elapsed = 0:0:00:40 / Fri Jan 16 06:24:37 2015
GPGPU-Sim PTX: 12400000 instructions simulated : ctaid=(68,0,0) tid=(0,204,0)
GPGPU-Sim uArch: Shader 8 finished CTA #2 (37882,0), 5 CTAs running
GPGPU-Sim uArch: core:  8, cta: 2 initialized @(37883,0)
GPGPU-Sim PTX: 12500000 instructions simulated : ctaid=(103,0,0) tid=(0,15,0)
GPGPU-Sim uArch: cycles simulated: 38000  inst.: 11783740 (ipc=310.1) sim_rate=287408 (inst/sec) elapsed = 0:0:00:41 / Fri Jan 16 06:24:38 2015
GPGPU-Sim uArch: Shader 11 finished CTA #2 (38123,0), 5 CTAs running
GPGPU-Sim uArch: core: 11, cta: 2 initialized @(38124,0)
GPGPU-Sim uArch: Shader 13 finished CTA #1 (38248,0), 5 CTAs running
GPGPU-Sim uArch: core: 13, cta: 1 initialized @(38249,0)
GPGPU-Sim PTX: 12600000 instructions simulated : ctaid=(78,0,0) tid=(0,224,0)
GPGPU-Sim PTX: 12700000 instructions simulated : ctaid=(72,0,0) tid=(0,176,0)
GPGPU-Sim uArch: Shader 3 finished CTA #3 (38676,0), 5 CTAs running
GPGPU-Sim uArch: core:  3, cta: 3 initialized @(38677,0)
GPGPU-Sim PTX: 12800000 instructions simulated : ctaid=(78,0,0) tid=(0,71,0)
GPGPU-Sim uArch: cycles simulated: 39000  inst.: 12102181 (ipc=310.3) sim_rate=288147 (inst/sec) elapsed = 0:0:00:42 / Fri Jan 16 06:24:39 2015
GPGPU-Sim PTX: 12900000 instructions simulated : ctaid=(86,0,0) tid=(0,4,0)
GPGPU-Sim uArch: Shader 10 finished CTA #2 (39220,0), 5 CTAs running
GPGPU-Sim uArch: core: 10, cta: 2 initialized @(39221,0)
GPGPU-Sim PTX: 13000000 instructions simulated : ctaid=(93,0,0) tid=(0,116,0)
GPGPU-Sim PTX: 13100000 instructions simulated : ctaid=(83,0,0) tid=(0,145,0)
GPGPU-Sim uArch: cycles simulated: 40000  inst.: 12402366 (ipc=310.1) sim_rate=288427 (inst/sec) elapsed = 0:0:00:43 / Fri Jan 16 06:24:40 2015
GPGPU-Sim PTX: 13200000 instructions simulated : ctaid=(74,0,0) tid=(0,209,0)
GPGPU-Sim PTX: 13300000 instructions simulated : ctaid=(104,0,0) tid=(0,51,0)
GPGPU-Sim PTX: 13400000 instructions simulated : ctaid=(95,0,0) tid=(0,159,0)
GPGPU-Sim uArch: cycles simulated: 41000  inst.: 12713464 (ipc=310.1) sim_rate=288942 (inst/sec) elapsed = 0:0:00:44 / Fri Jan 16 06:24:41 2015
GPGPU-Sim PTX: 13500000 instructions simulated : ctaid=(89,0,0) tid=(0,0,0)
GPGPU-Sim PTX: 13600000 instructions simulated : ctaid=(79,0,0) tid=(0,196,0)
GPGPU-Sim uArch: cycles simulated: 41500  inst.: 12859495 (ipc=309.9) sim_rate=285766 (inst/sec) elapsed = 0:0:00:45 / Fri Jan 16 06:24:42 2015
GPGPU-Sim PTX: 13700000 instructions simulated : ctaid=(79,0,0) tid=(0,136,0)
GPGPU-Sim PTX: 13800000 instructions simulated : ctaid=(70,0,0) tid=(0,163,0)
GPGPU-Sim PTX: 13900000 instructions simulated : ctaid=(66,0,0) tid=(0,159,0)
GPGPU-Sim uArch: Shader 5 finished CTA #2 (42342,0), 5 CTAs running
GPGPU-Sim uArch: core:  5, cta: 2 initialized @(42343,0)
GPGPU-Sim uArch: Shader 2 finished CTA #3 (42369,0), 5 CTAs running
GPGPU-Sim uArch: core:  2, cta: 3 initialized @(42370,0)
GPGPU-Sim uArch: cycles simulated: 42500  inst.: 13149031 (ipc=309.4) sim_rate=285848 (inst/sec) elapsed = 0:0:00:46 / Fri Jan 16 06:24:43 2015
GPGPU-Sim PTX: 14000000 instructions simulated : ctaid=(99,0,0) tid=(0,104,0)
GPGPU-Sim PTX: 14100000 instructions simulated : ctaid=(93,0,0) tid=(0,90,0)
GPGPU-Sim PTX: 14200000 instructions simulated : ctaid=(89,0,0) tid=(0,67,0)
GPGPU-Sim uArch: cycles simulated: 43500  inst.: 13444926 (ipc=309.1) sim_rate=286062 (inst/sec) elapsed = 0:0:00:47 / Fri Jan 16 06:24:44 2015
GPGPU-Sim PTX: 14300000 instructions simulated : ctaid=(71,0,0) tid=(0,181,0)
GPGPU-Sim PTX: 14400000 instructions simulated : ctaid=(103,0,0) tid=(0,133,0)
GPGPU-Sim PTX: 14500000 instructions simulated : ctaid=(110,0,0) tid=(0,110,0)
GPGPU-Sim uArch: Shader 13 finished CTA #2 (44380,0), 5 CTAs running
GPGPU-Sim uArch: core: 13, cta: 2 initialized @(44381,0)
GPGPU-Sim uArch: Shader 12 finished CTA #2 (44477,0), 5 CTAs running
GPGPU-Sim uArch: core: 12, cta: 2 initialized @(44478,0)
GPGPU-Sim uArch: cycles simulated: 44500  inst.: 13735872 (ipc=308.7) sim_rate=286164 (inst/sec) elapsed = 0:0:00:48 / Fri Jan 16 06:24:45 2015
GPGPU-Sim PTX: 14600000 instructions simulated : ctaid=(115,0,0) tid=(0,110,0)
GPGPU-Sim uArch: Shader 7 finished CTA #3 (44618,0), 5 CTAs running
GPGPU-Sim uArch: core:  7, cta: 3 initialized @(44619,0)
GPGPU-Sim uArch: Shader 14 finished CTA #2 (44643,0), 5 CTAs running
GPGPU-Sim uArch: core: 14, cta: 2 initialized @(44644,0)
GPGPU-Sim PTX: 14700000 instructions simulated : ctaid=(82,0,0) tid=(0,118,0)
GPGPU-Sim PTX: 14800000 instructions simulated : ctaid=(82,0,0) tid=(0,134,0)
GPGPU-Sim uArch: Shader 1 finished CTA #3 (45361,0), 5 CTAs running
GPGPU-Sim uArch: core:  1, cta: 3 initialized @(45362,0)
GPGPU-Sim PTX: 14900000 instructions simulated : ctaid=(110,0,0) tid=(0,174,0)
GPGPU-Sim uArch: cycles simulated: 45500  inst.: 14034559 (ipc=308.5) sim_rate=286419 (inst/sec) elapsed = 0:0:00:49 / Fri Jan 16 06:24:46 2015
GPGPU-Sim PTX: 15000000 instructions simulated : ctaid=(83,0,0) tid=(0,188,0)
GPGPU-Sim uArch: Shader 8 finished CTA #3 (46011,0), 5 CTAs running
GPGPU-Sim uArch: core:  8, cta: 3 initialized @(46012,0)
GPGPU-Sim PTX: 15100000 instructions simulated : ctaid=(83,0,0) tid=(0,209,0)
GPGPU-Sim PTX: 15200000 instructions simulated : ctaid=(94,0,0) tid=(0,255,0)
GPGPU-Sim uArch: cycles simulated: 46500  inst.: 14328584 (ipc=308.1) sim_rate=286571 (inst/sec) elapsed = 0:0:00:50 / Fri Jan 16 06:24:47 2015
GPGPU-Sim PTX: 15300000 instructions simulated : ctaid=(88,0,0) tid=(0,136,0)
GPGPU-Sim uArch: Shader 0 finished CTA #2 (46828,0), 5 CTAs running
GPGPU-Sim uArch: core:  0, cta: 2 initialized @(46829,0)
GPGPU-Sim uArch: Shader 1 finished CTA #4 (46831,0), 5 CTAs running
GPGPU-Sim uArch: core:  1, cta: 4 initialized @(46832,0)
GPGPU-Sim PTX: 15400000 instructions simulated : ctaid=(102,0,0) tid=(0,99,0)
GPGPU-Sim uArch: Shader 5 finished CTA #3 (47213,0), 5 CTAs running
GPGPU-Sim uArch: core:  5, cta: 3 initialized @(47214,0)
GPGPU-Sim PTX: 15500000 instructions simulated : ctaid=(76,0,0) tid=(0,166,0)
GPGPU-Sim uArch: cycles simulated: 47500  inst.: 14642800 (ipc=308.3) sim_rate=287113 (inst/sec) elapsed = 0:0:00:51 / Fri Jan 16 06:24:48 2015
GPGPU-Sim PTX: 15600000 instructions simulated : ctaid=(91,0,0) tid=(0,15,0)
GPGPU-Sim PTX: 15700000 instructions simulated : ctaid=(110,0,0) tid=(0,144,0)
GPGPU-Sim uArch: cycles simulated: 48000  inst.: 14805819 (ipc=308.5) sim_rate=284727 (inst/sec) elapsed = 0:0:00:52 / Fri Jan 16 06:24:49 2015
GPGPU-Sim PTX: 15800000 instructions simulated : ctaid=(92,0,0) tid=(0,116,0)
GPGPU-Sim PTX: 15900000 instructions simulated : ctaid=(97,0,0) tid=(0,48,0)
GPGPU-Sim uArch: Shader 10 finished CTA #3 (48652,0), 5 CTAs running
GPGPU-Sim uArch: core: 10, cta: 3 initialized @(48653,0)
GPGPU-Sim PTX: 16000000 instructions simulated : ctaid=(95,0,0) tid=(0,124,0)
GPGPU-Sim uArch: cycles simulated: 49000  inst.: 15134502 (ipc=308.9) sim_rate=285556 (inst/sec) elapsed = 0:0:00:53 / Fri Jan 16 06:24:50 2015
GPGPU-Sim PTX: 16100000 instructions simulated : ctaid=(103,0,0) tid=(0,78,0)
GPGPU-Sim PTX: 16200000 instructions simulated : ctaid=(92,0,0) tid=(0,92,0)
GPGPU-Sim PTX: 16300000 instructions simulated : ctaid=(68,0,0) tid=(0,218,0)
GPGPU-Sim PTX: 16400000 instructions simulated : ctaid=(93,0,0) tid=(0,174,0)
GPGPU-Sim uArch: cycles simulated: 50000  inst.: 15464429 (ipc=309.3) sim_rate=286378 (inst/sec) elapsed = 0:0:00:54 / Fri Jan 16 06:24:51 2015
GPGPU-Sim PTX: 16500000 instructions simulated : ctaid=(95,0,0) tid=(0,187,0)
GPGPU-Sim uArch: Shader 14 finished CTA #3 (50319,0), 5 CTAs running
GPGPU-Sim uArch: core: 14, cta: 3 initialized @(50320,0)
GPGPU-Sim PTX: 16600000 instructions simulated : ctaid=(92,0,0) tid=(0,6,0)
GPGPU-Sim uArch: Shader 9 finished CTA #3 (50757,0), 5 CTAs running
GPGPU-Sim uArch: core:  9, cta: 3 initialized @(50758,0)
GPGPU-Sim PTX: 16700000 instructions simulated : ctaid=(90,0,0) tid=(0,218,0)
GPGPU-Sim uArch: cycles simulated: 51000  inst.: 15806731 (ipc=309.9) sim_rate=287395 (inst/sec) elapsed = 0:0:00:55 / Fri Jan 16 06:24:52 2015
GPGPU-Sim PTX: 16800000 instructions simulated : ctaid=(103,0,0) tid=(0,176,0)
GPGPU-Sim uArch: Shader 6 finished CTA #3 (51193,0), 5 CTAs running
GPGPU-Sim uArch: core:  6, cta: 3 initialized @(51194,0)
GPGPU-Sim PTX: 16900000 instructions simulated : ctaid=(88,0,0) tid=(0,218,0)
GPGPU-Sim uArch: Shader 0 finished CTA #3 (51534,0), 5 CTAs running
GPGPU-Sim uArch: core:  0, cta: 3 initialized @(51535,0)
GPGPU-Sim PTX: 17000000 instructions simulated : ctaid=(108,0,0) tid=(0,77,0)
GPGPU-Sim uArch: Shader 13 finished CTA #3 (51702,0), 5 CTAs running
GPGPU-Sim uArch: core: 13, cta: 3 initialized @(51703,0)
GPGPU-Sim PTX: 17100000 instructions simulated : ctaid=(85,0,0) tid=(0,224,0)
GPGPU-Sim uArch: cycles simulated: 52000  inst.: 16156143 (ipc=310.7) sim_rate=288502 (inst/sec) elapsed = 0:0:00:56 / Fri Jan 16 06:24:53 2015
GPGPU-Sim PTX: 17200000 instructions simulated : ctaid=(91,0,0) tid=(0,214,0)
GPGPU-Sim PTX: 17300000 instructions simulated : ctaid=(84,0,0) tid=(0,137,0)
GPGPU-Sim uArch: cycles simulated: 52500  inst.: 16329028 (ipc=311.0) sim_rate=286474 (inst/sec) elapsed = 0:0:00:57 / Fri Jan 16 06:24:54 2015
GPGPU-Sim PTX: 17400000 instructions simulated : ctaid=(98,0,0) tid=(0,92,0)
GPGPU-Sim PTX: 17500000 instructions simulated : ctaid=(111,0,0) tid=(0,177,0)
GPGPU-Sim PTX: 17600000 instructions simulated : ctaid=(108,0,0) tid=(0,131,0)
GPGPU-Sim PTX: 17700000 instructions simulated : ctaid=(98,0,0) tid=(0,161,0)
GPGPU-Sim uArch: cycles simulated: 53500  inst.: 16672234 (ipc=311.6) sim_rate=287452 (inst/sec) elapsed = 0:0:00:58 / Fri Jan 16 06:24:55 2015
GPGPU-Sim uArch: Shader 11 finished CTA #3 (53684,0), 5 CTAs running
GPGPU-Sim uArch: core: 11, cta: 3 initialized @(53685,0)
GPGPU-Sim PTX: 17800000 instructions simulated : ctaid=(83,0,0) tid=(0,215,0)
GPGPU-Sim uArch: Shader 4 finished CTA #4 (53925,0), 5 CTAs running
GPGPU-Sim uArch: core:  4, cta: 4 initialized @(53926,0)
GPGPU-Sim PTX: 17900000 instructions simulated : ctaid=(96,0,0) tid=(0,135,0)
GPGPU-Sim PTX: 18000000 instructions simulated : ctaid=(91,0,0) tid=(0,180,0)
GPGPU-Sim uArch: cycles simulated: 54500  inst.: 17019064 (ipc=312.3) sim_rate=288458 (inst/sec) elapsed = 0:0:00:59 / Fri Jan 16 06:24:56 2015
GPGPU-Sim uArch: Shader 4 finished CTA #3 (54511,0), 5 CTAs running
GPGPU-Sim uArch: core:  4, cta: 3 initialized @(54512,0)
GPGPU-Sim PTX: 18100000 instructions simulated : ctaid=(113,0,0) tid=(0,8,0)
GPGPU-Sim uArch: Shader 2 finished CTA #4 (54746,0), 5 CTAs running
GPGPU-Sim uArch: core:  2, cta: 4 initialized @(54747,0)
GPGPU-Sim uArch: Shader 5 finished CTA #4 (54801,0), 5 CTAs running
GPGPU-Sim uArch: core:  5, cta: 4 initialized @(54802,0)
GPGPU-Sim PTX: 18200000 instructions simulated : ctaid=(125,0,0) tid=(0,170,0)
GPGPU-Sim PTX: 18300000 instructions simulated : ctaid=(121,0,0) tid=(0,167,0)
GPGPU-Sim PTX: 18400000 instructions simulated : ctaid=(79,0,0) tid=(0,129,0)
GPGPU-Sim uArch: cycles simulated: 55500  inst.: 17395353 (ipc=313.4) sim_rate=289922 (inst/sec) elapsed = 0:0:01:00 / Fri Jan 16 06:24:57 2015
GPGPU-Sim PTX: 18500000 instructions simulated : ctaid=(95,0,0) tid=(0,139,0)
GPGPU-Sim PTX: 18600000 instructions simulated : ctaid=(99,0,0) tid=(0,141,0)
GPGPU-Sim uArch: cycles simulated: 56000  inst.: 17579749 (ipc=313.9) sim_rate=288192 (inst/sec) elapsed = 0:0:01:01 / Fri Jan 16 06:24:58 2015
GPGPU-Sim PTX: 18700000 instructions simulated : ctaid=(91,0,0) tid=(0,125,0)
GPGPU-Sim PTX: 18800000 instructions simulated : ctaid=(99,0,0) tid=(0,142,0)
GPGPU-Sim PTX: 18900000 instructions simulated : ctaid=(121,0,0) tid=(0,65,0)
GPGPU-Sim PTX: 19000000 instructions simulated : ctaid=(119,0,0) tid=(0,40,0)
GPGPU-Sim uArch: Shader 12 finished CTA #3 (56993,0), 5 CTAs running
GPGPU-Sim uArch: core: 12, cta: 3 initialized @(56994,0)
GPGPU-Sim uArch: cycles simulated: 57000  inst.: 17948207 (ipc=314.9) sim_rate=289487 (inst/sec) elapsed = 0:0:01:02 / Fri Jan 16 06:24:59 2015
GPGPU-Sim PTX: 19100000 instructions simulated : ctaid=(102,0,0) tid=(0,223,0)
GPGPU-Sim PTX: 19200000 instructions simulated : ctaid=(98,0,0) tid=(0,11,0)
GPGPU-Sim PTX: 19300000 instructions simulated : ctaid=(93,0,0) tid=(0,193,0)
GPGPU-Sim uArch: Shader 0 finished CTA #4 (57668,0), 5 CTAs running
GPGPU-Sim uArch: core:  0, cta: 4 initialized @(57669,0)
GPGPU-Sim PTX: 19400000 instructions simulated : ctaid=(123,0,0) tid=(0,0,0)
GPGPU-Sim uArch: cycles simulated: 58000  inst.: 18314895 (ipc=315.8) sim_rate=290712 (inst/sec) elapsed = 0:0:01:03 / Fri Jan 16 06:25:00 2015
GPGPU-Sim PTX: 19500000 instructions simulated : ctaid=(92,0,0) tid=(0,218,0)
GPGPU-Sim uArch: Shader 8 finished CTA #4 (58209,0), 5 CTAs running
GPGPU-Sim uArch: core:  8, cta: 4 initialized @(58210,0)
GPGPU-Sim PTX: 19600000 instructions simulated : ctaid=(102,0,0) tid=(0,131,0)
GPGPU-Sim uArch: cycles simulated: 58500  inst.: 18495856 (ipc=316.2) sim_rate=288997 (inst/sec) elapsed = 0:0:01:04 / Fri Jan 16 06:25:01 2015
GPGPU-Sim PTX: 19700000 instructions simulated : ctaid=(93,0,0) tid=(0,184,0)
GPGPU-Sim uArch: Shader 6 finished CTA #4 (58725,0), 5 CTAs running
GPGPU-Sim uArch: core:  6, cta: 4 initialized @(58726,0)
GPGPU-Sim PTX: 19800000 instructions simulated : ctaid=(121,0,0) tid=(0,40,0)
GPGPU-Sim uArch: Shader 14 finished CTA #4 (58927,0), 5 CTAs running
GPGPU-Sim uArch: core: 14, cta: 4 initialized @(58928,0)
GPGPU-Sim uArch: Shader 9 finished CTA #4 (58979,0), 5 CTAs running
GPGPU-Sim uArch: core:  9, cta: 4 initialized @(58980,0)
GPGPU-Sim uArch: Shader 13 finished CTA #4 (59011,0), 5 CTAs running
GPGPU-Sim uArch: core: 13, cta: 4 initialized @(59012,0)
GPGPU-Sim PTX: 19900000 instructions simulated : ctaid=(122,0,0) tid=(0,154,0)
GPGPU-Sim PTX: 20000000 instructions simulated : ctaid=(107,0,0) tid=(0,19,0)
GPGPU-Sim uArch: cycles simulated: 59500  inst.: 18870601 (ipc=317.2) sim_rate=290316 (inst/sec) elapsed = 0:0:01:05 / Fri Jan 16 06:25:02 2015
GPGPU-Sim uArch: Shader 3 finished CTA #4 (59511,0), 5 CTAs running
GPGPU-Sim uArch: core:  3, cta: 4 initialized @(59512,0)
GPGPU-Sim PTX: 20100000 instructions simulated : ctaid=(108,0,0) tid=(0,114,0)
GPGPU-Sim PTX: 20200000 instructions simulated : ctaid=(111,0,0) tid=(0,154,0)
GPGPU-Sim uArch: Shader 11 finished CTA #4 (60017,0), 5 CTAs running
GPGPU-Sim uArch: core: 11, cta: 4 initialized @(60018,0)
GPGPU-Sim PTX: 20300000 instructions simulated : ctaid=(120,0,0) tid=(0,227,0)
GPGPU-Sim PTX: 20400000 instructions simulated : ctaid=(108,0,0) tid=(0,173,0)
GPGPU-Sim uArch: Shader 2 finished CTA #5 (60382,0), 5 CTAs running
GPGPU-Sim uArch: core:  2, cta: 5 initialized @(60383,0)
GPGPU-Sim uArch: cycles simulated: 60500  inst.: 19247174 (ipc=318.1) sim_rate=291623 (inst/sec) elapsed = 0:0:01:06 / Fri Jan 16 06:25:03 2015
GPGPU-Sim uArch: Shader 1 finished CTA #5 (60582,0), 5 CTAs running
GPGPU-Sim uArch: core:  1, cta: 5 initialized @(60583,0)
GPGPU-Sim PTX: 20500000 instructions simulated : ctaid=(116,0,0) tid=(0,162,0)
GPGPU-Sim PTX: 20600000 instructions simulated : ctaid=(90,0,0) tid=(0,221,0)
GPGPU-Sim uArch: cycles simulated: 61000  inst.: 19439007 (ipc=318.7) sim_rate=290134 (inst/sec) elapsed = 0:0:01:07 / Fri Jan 16 06:25:04 2015
GPGPU-Sim PTX: 20700000 instructions simulated : ctaid=(116,0,0) tid=(0,157,0)
GPGPU-Sim PTX: 20800000 instructions simulated : ctaid=(99,0,0) tid=(0,191,0)
GPGPU-Sim uArch: Shader 12 finished CTA #4 (61527,0), 5 CTAs running
GPGPU-Sim uArch: core: 12, cta: 4 initialized @(61528,0)
GPGPU-Sim PTX: 20900000 instructions simulated : ctaid=(92,0,0) tid=(0,212,0)
GPGPU-Sim uArch: Shader 7 finished CTA #4 (61638,0), 5 CTAs running
GPGPU-Sim uArch: core:  7, cta: 4 initialized @(61639,0)
GPGPU-Sim PTX: 21000000 instructions simulated : ctaid=(123,0,0) tid=(0,212,0)
GPGPU-Sim uArch: cycles simulated: 62000  inst.: 19827891 (ipc=319.8) sim_rate=291586 (inst/sec) elapsed = 0:0:01:08 / Fri Jan 16 06:25:05 2015
GPGPU-Sim PTX: 21100000 instructions simulated : ctaid=(100,0,0) tid=(0,234,0)
GPGPU-Sim PTX: 21200000 instructions simulated : ctaid=(110,0,0) tid=(0,65,0)
GPGPU-Sim PTX: 21300000 instructions simulated : ctaid=(104,0,0) tid=(0,190,0)
GPGPU-Sim PTX: 21400000 instructions simulated : ctaid=(128,0,0) tid=(0,100,0)
GPGPU-Sim uArch: cycles simulated: 63000  inst.: 20202434 (ipc=320.7) sim_rate=292788 (inst/sec) elapsed = 0:0:01:09 / Fri Jan 16 06:25:06 2015
GPGPU-Sim PTX: 21500000 instructions simulated : ctaid=(120,0,0) tid=(0,79,0)
GPGPU-Sim PTX: 21600000 instructions simulated : ctaid=(117,0,0) tid=(0,160,0)
GPGPU-Sim uArch: Shader 10 finished CTA #4 (63384,0), 5 CTAs running
GPGPU-Sim uArch: core: 10, cta: 4 initialized @(63385,0)
GPGPU-Sim uArch: cycles simulated: 63500  inst.: 20398489 (ipc=321.2) sim_rate=291406 (inst/sec) elapsed = 0:0:01:10 / Fri Jan 16 06:25:07 2015
GPGPU-Sim PTX: 21700000 instructions simulated : ctaid=(112,0,0) tid=(0,101,0)
GPGPU-Sim PTX: 21800000 instructions simulated : ctaid=(92,0,0) tid=(0,8,0)
GPGPU-Sim PTX: 21900000 instructions simulated : ctaid=(93,0,0) tid=(0,195,0)
GPGPU-Sim PTX: 22000000 instructions simulated : ctaid=(107,0,0) tid=(0,126,0)
GPGPU-Sim uArch: cycles simulated: 64500  inst.: 20775627 (ipc=322.1) sim_rate=292614 (inst/sec) elapsed = 0:0:01:11 / Fri Jan 16 06:25:08 2015
GPGPU-Sim PTX: 22100000 instructions simulated : ctaid=(97,0,0) tid=(0,240,0)
GPGPU-Sim PTX: 22200000 instructions simulated : ctaid=(122,0,0) tid=(0,97,0)
GPGPU-Sim PTX: 22300000 instructions simulated : ctaid=(109,0,0) tid=(0,123,0)
GPGPU-Sim PTX: 22400000 instructions simulated : ctaid=(116,0,0) tid=(0,143,0)
GPGPU-Sim uArch: cycles simulated: 65500  inst.: 21154354 (ipc=323.0) sim_rate=293810 (inst/sec) elapsed = 0:0:01:12 / Fri Jan 16 06:25:09 2015
GPGPU-Sim PTX: 22500000 instructions simulated : ctaid=(121,0,0) tid=(0,5,0)
GPGPU-Sim PTX: 22600000 instructions simulated : ctaid=(120,0,0) tid=(0,82,0)
GPGPU-Sim uArch: cycles simulated: 66000  inst.: 21347567 (ipc=323.4) sim_rate=292432 (inst/sec) elapsed = 0:0:01:13 / Fri Jan 16 06:25:10 2015
GPGPU-Sim PTX: 22700000 instructions simulated : ctaid=(109,0,0) tid=(0,20,0)
GPGPU-Sim PTX: 22800000 instructions simulated : ctaid=(126,0,0) tid=(0,201,0)
GPGPU-Sim PTX: 22900000 instructions simulated : ctaid=(116,0,0) tid=(0,212,0)
GPGPU-Sim PTX: 23000000 instructions simulated : ctaid=(115,0,0) tid=(0,156,0)
GPGPU-Sim uArch: Shader 9 finished CTA #5 (66892,0), 5 CTAs running
GPGPU-Sim uArch: core:  9, cta: 5 initialized @(66893,0)
GPGPU-Sim uArch: cycles simulated: 67000  inst.: 21729466 (ipc=324.3) sim_rate=293641 (inst/sec) elapsed = 0:0:01:14 / Fri Jan 16 06:25:11 2015
GPGPU-Sim PTX: 23100000 instructions simulated : ctaid=(130,0,0) tid=(0,78,0)
GPGPU-Sim uArch: Shader 4 finished CTA #5 (67022,0), 5 CTAs running
GPGPU-Sim uArch: core:  4, cta: 5 initialized @(67023,0)
GPGPU-Sim PTX: 23200000 instructions simulated : ctaid=(126,0,0) tid=(0,74,0)
GPGPU-Sim PTX: 23300000 instructions simulated : ctaid=(108,0,0) tid=(0,179,0)
GPGPU-Sim PTX: 23400000 instructions simulated : ctaid=(117,0,0) tid=(0,9,0)
GPGPU-Sim PTX: 23500000 instructions simulated : ctaid=(99,0,0) tid=(0,210,0)
GPGPU-Sim uArch: cycles simulated: 68000  inst.: 22117491 (ipc=325.3) sim_rate=294899 (inst/sec) elapsed = 0:0:01:15 / Fri Jan 16 06:25:12 2015
GPGPU-Sim uArch: Shader 5 finished CTA #5 (68116,0), 5 CTAs running
GPGPU-Sim uArch: core:  5, cta: 5 initialized @(68117,0)
GPGPU-Sim uArch: Shader 10 finished CTA #5 (68124,0), 5 CTAs running
GPGPU-Sim uArch: core: 10, cta: 5 initialized @(68125,0)
GPGPU-Sim uArch: Shader 6 finished CTA #5 (68156,0), 5 CTAs running
GPGPU-Sim uArch: core:  6, cta: 5 initialized @(68157,0)
GPGPU-Sim uArch: Shader 3 finished CTA #5 (68201,0), 5 CTAs running
GPGPU-Sim uArch: core:  3, cta: 5 initialized @(68202,0)
GPGPU-Sim PTX: 23600000 instructions simulated : ctaid=(118,0,0) tid=(0,145,0)
GPGPU-Sim PTX: 23700000 instructions simulated : ctaid=(149,0,0) tid=(0,35,0)
GPGPU-Sim uArch: cycles simulated: 68500  inst.: 22320548 (ipc=325.8) sim_rate=293691 (inst/sec) elapsed = 0:0:01:16 / Fri Jan 16 06:25:13 2015
GPGPU-Sim PTX: 23800000 instructions simulated : ctaid=(107,0,0) tid=(0,83,0)
GPGPU-Sim PTX: 23900000 instructions simulated : ctaid=(111,0,0) tid=(0,159,0)
GPGPU-Sim PTX: 24000000 instructions simulated : ctaid=(113,0,0) tid=(0,182,0)
GPGPU-Sim PTX: 24100000 instructions simulated : ctaid=(117,0,0) tid=(0,118,0)
GPGPU-Sim uArch: cycles simulated: 69500  inst.: 22713322 (ipc=326.8) sim_rate=294978 (inst/sec) elapsed = 0:0:01:17 / Fri Jan 16 06:25:14 2015
GPGPU-Sim PTX: 24200000 instructions simulated : ctaid=(144,0,0) tid=(0,13,0)
GPGPU-Sim PTX: 24300000 instructions simulated : ctaid=(125,0,0) tid=(0,229,0)
GPGPU-Sim PTX: 24400000 instructions simulated : ctaid=(122,0,0) tid=(0,133,0)
GPGPU-Sim PTX: 24500000 instructions simulated : ctaid=(97,0,0) tid=(0,149,0)
GPGPU-Sim uArch: cycles simulated: 70500  inst.: 23111955 (ipc=327.8) sim_rate=296307 (inst/sec) elapsed = 0:0:01:18 / Fri Jan 16 06:25:15 2015
GPGPU-Sim PTX: 24600000 instructions simulated : ctaid=(109,0,0) tid=(0,215,0)
GPGPU-Sim PTX: 24700000 instructions simulated : ctaid=(124,0,0) tid=(0,179,0)
GPGPU-Sim uArch: cycles simulated: 71000  inst.: 23304697 (ipc=328.2) sim_rate=294996 (inst/sec) elapsed = 0:0:01:19 / Fri Jan 16 06:25:16 2015
GPGPU-Sim PTX: 24800000 instructions simulated : ctaid=(118,0,0) tid=(0,86,0)
GPGPU-Sim PTX: 24900000 instructions simulated : ctaid=(125,0,0) tid=(0,189,0)
GPGPU-Sim uArch: Shader 8 finished CTA #5 (71350,0), 5 CTAs running
GPGPU-Sim uArch: core:  8, cta: 5 initialized @(71351,0)
GPGPU-Sim uArch: Shader 11 finished CTA #5 (71420,0), 5 CTAs running
GPGPU-Sim uArch: core: 11, cta: 5 initialized @(71421,0)
GPGPU-Sim PTX: 25000000 instructions simulated : ctaid=(139,0,0) tid=(0,28,0)
GPGPU-Sim uArch: Shader 12 finished CTA #5 (71713,0), 5 CTAs running
GPGPU-Sim uArch: core: 12, cta: 5 initialized @(71714,0)
GPGPU-Sim PTX: 25100000 instructions simulated : ctaid=(117,0,0) tid=(0,127,0)
GPGPU-Sim uArch: cycles simulated: 72000  inst.: 23699808 (ipc=329.2) sim_rate=296247 (inst/sec) elapsed = 0:0:01:20 / Fri Jan 16 06:25:17 2015
GPGPU-Sim PTX: 25200000 instructions simulated : ctaid=(139,0,0) tid=(0,30,0)
GPGPU-Sim PTX: 25300000 instructions simulated : ctaid=(127,0,0) tid=(0,71,0)
GPGPU-Sim PTX: 25400000 instructions simulated : ctaid=(107,0,0) tid=(0,180,0)
GPGPU-Sim PTX: 25500000 instructions simulated : ctaid=(111,0,0) tid=(0,187,0)
GPGPU-Sim uArch: Shader 7 finished CTA #5 (72842,0), 5 CTAs running
GPGPU-Sim uArch: core:  7, cta: 5 initialized @(72843,0)
GPGPU-Sim uArch: cycles simulated: 73000  inst.: 24080005 (ipc=329.9) sim_rate=297284 (inst/sec) elapsed = 0:0:01:21 / Fri Jan 16 06:25:18 2015
GPGPU-Sim PTX: 25600000 instructions simulated : ctaid=(109,0,0) tid=(0,199,0)
GPGPU-Sim PTX: 25700000 instructions simulated : ctaid=(138,0,0) tid=(0,158,0)
GPGPU-Sim uArch: cycles simulated: 73500  inst.: 24264003 (ipc=330.1) sim_rate=295902 (inst/sec) elapsed = 0:0:01:22 / Fri Jan 16 06:25:19 2015
GPGPU-Sim PTX: 25800000 instructions simulated : ctaid=(113,0,0) tid=(0,185,0)
GPGPU-Sim PTX: 25900000 instructions simulated : ctaid=(116,0,0) tid=(0,126,0)
GPGPU-Sim PTX: 26000000 instructions simulated : ctaid=(133,0,0) tid=(0,118,0)
GPGPU-Sim PTX: 26100000 instructions simulated : ctaid=(135,0,0) tid=(0,64,0)
GPGPU-Sim uArch: cycles simulated: 74500  inst.: 24625544 (ipc=330.5) sim_rate=296693 (inst/sec) elapsed = 0:0:01:23 / Fri Jan 16 06:25:20 2015
GPGPU-Sim PTX: 26200000 instructions simulated : ctaid=(109,0,0) tid=(0,211,0)
GPGPU-Sim PTX: 26300000 instructions simulated : ctaid=(145,0,0) tid=(0,111,0)
GPGPU-Sim PTX: 26400000 instructions simulated : ctaid=(113,0,0) tid=(0,228,0)
GPGPU-Sim PTX: 26500000 instructions simulated : ctaid=(125,0,0) tid=(0,187,0)
GPGPU-Sim uArch: Shader 14 finished CTA #5 (75379,0), 5 CTAs running
GPGPU-Sim uArch: core: 14, cta: 5 initialized @(75380,0)
GPGPU-Sim uArch: cycles simulated: 75500  inst.: 24984728 (ipc=330.9) sim_rate=297437 (inst/sec) elapsed = 0:0:01:24 / Fri Jan 16 06:25:21 2015
GPGPU-Sim PTX: 26600000 instructions simulated : ctaid=(118,0,0) tid=(0,167,0)
GPGPU-Sim uArch: Shader 2 finished CTA #1 (75850,0), 5 CTAs running
GPGPU-Sim uArch: core:  2, cta: 1 initialized @(75851,0)
GPGPU-Sim PTX: 26700000 instructions simulated : ctaid=(136,0,0) tid=(0,178,0)
GPGPU-Sim uArch: cycles simulated: 76000  inst.: 25168036 (ipc=331.2) sim_rate=296094 (inst/sec) elapsed = 0:0:01:25 / Fri Jan 16 06:25:22 2015
GPGPU-Sim uArch: Shader 13 finished CTA #5 (76011,0), 5 CTAs running
GPGPU-Sim uArch: core: 13, cta: 5 initialized @(76012,0)
GPGPU-Sim PTX: 26800000 instructions simulated : ctaid=(141,0,0) tid=(0,60,0)
GPGPU-Sim PTX: 26900000 instructions simulated : ctaid=(109,0,0) tid=(0,179,0)
GPGPU-Sim PTX: 27000000 instructions simulated : ctaid=(136,0,0) tid=(0,68,0)
GPGPU-Sim uArch: Shader 0 finished CTA #5 (76831,0), 5 CTAs running
GPGPU-Sim uArch: core:  0, cta: 5 initialized @(76832,0)
GPGPU-Sim PTX: 27100000 instructions simulated : ctaid=(130,0,0) tid=(0,72,0)
GPGPU-Sim uArch: cycles simulated: 77000  inst.: 25533977 (ipc=331.6) sim_rate=296906 (inst/sec) elapsed = 0:0:01:26 / Fri Jan 16 06:25:23 2015
GPGPU-Sim PTX: 27200000 instructions simulated : ctaid=(171,0,0) tid=(0,16,0)
GPGPU-Sim uArch: Shader 1 finished CTA #0 (77210,0), 5 CTAs running
GPGPU-Sim uArch: core:  1, cta: 0 initialized @(77211,0)
GPGPU-Sim PTX: 27300000 instructions simulated : ctaid=(133,0,0) tid=(0,92,0)
GPGPU-Sim PTX: 27400000 instructions simulated : ctaid=(136,0,0) tid=(0,238,0)
GPGPU-Sim PTX: 27500000 instructions simulated : ctaid=(133,0,0) tid=(0,225,0)
GPGPU-Sim uArch: cycles simulated: 78000  inst.: 25906428 (ipc=332.1) sim_rate=297775 (inst/sec) elapsed = 0:0:01:27 / Fri Jan 16 06:25:24 2015
GPGPU-Sim PTX: 27600000 instructions simulated : ctaid=(119,0,0) tid=(0,209,0)
GPGPU-Sim PTX: 27700000 instructions simulated : ctaid=(127,0,0) tid=(0,180,0)
GPGPU-Sim uArch: cycles simulated: 78500  inst.: 26088311 (ipc=332.3) sim_rate=296458 (inst/sec) elapsed = 0:0:01:28 / Fri Jan 16 06:25:25 2015
GPGPU-Sim PTX: 27800000 instructions simulated : ctaid=(145,0,0) tid=(0,61,0)
GPGPU-Sim PTX: 27900000 instructions simulated : ctaid=(100,0,0) tid=(0,206,0)
GPGPU-Sim PTX: 28000000 instructions simulated : ctaid=(144,0,0) tid=(0,30,0)
GPGPU-Sim PTX: 28100000 instructions simulated : ctaid=(114,0,0) tid=(0,223,0)
GPGPU-Sim uArch: cycles simulated: 79500  inst.: 26439350 (ipc=332.6) sim_rate=297071 (inst/sec) elapsed = 0:0:01:29 / Fri Jan 16 06:25:26 2015
GPGPU-Sim PTX: 28200000 instructions simulated : ctaid=(158,0,0) tid=(0,102,0)
GPGPU-Sim PTX: 28300000 instructions simulated : ctaid=(136,0,0) tid=(0,203,0)
GPGPU-Sim PTX: 28400000 instructions simulated : ctaid=(133,0,0) tid=(0,236,0)
GPGPU-Sim uArch: cycles simulated: 80500  inst.: 26791525 (ipc=332.8) sim_rate=297683 (inst/sec) elapsed = 0:0:01:30 / Fri Jan 16 06:25:27 2015
GPGPU-Sim PTX: 28500000 instructions simulated : ctaid=(127,0,0) tid=(0,120,0)
GPGPU-Sim PTX: 28600000 instructions simulated : ctaid=(133,0,0) tid=(0,160,0)
GPGPU-Sim uArch: Shader 6 finished CTA #0 (80958,0), 5 CTAs running
GPGPU-Sim uArch: core:  6, cta: 0 initialized @(80959,0)
GPGPU-Sim uArch: Shader 9 finished CTA #0 (81008,0), 5 CTAs running
GPGPU-Sim uArch: core:  9, cta: 0 initialized @(81009,0)
GPGPU-Sim PTX: 28700000 instructions simulated : ctaid=(144,0,0) tid=(0,175,0)
GPGPU-Sim PTX: 28800000 instructions simulated : ctaid=(114,0,0) tid=(0,239,0)
GPGPU-Sim uArch: cycles simulated: 81500  inst.: 27140220 (ipc=333.0) sim_rate=298244 (inst/sec) elapsed = 0:0:01:31 / Fri Jan 16 06:25:28 2015
GPGPU-Sim PTX: 28900000 instructions simulated : ctaid=(149,0,0) tid=(0,172,0)
GPGPU-Sim PTX: 29000000 instructions simulated : ctaid=(170,0,0) tid=(0,65,0)
GPGPU-Sim uArch: cycles simulated: 82000  inst.: 27313452 (ipc=333.1) sim_rate=296885 (inst/sec) elapsed = 0:0:01:32 / Fri Jan 16 06:25:29 2015
GPGPU-Sim uArch: Shader 3 finished CTA #2 (82140,0), 5 CTAs running
GPGPU-Sim uArch: core:  3, cta: 2 initialized @(82141,0)
GPGPU-Sim PTX: 29100000 instructions simulated : ctaid=(130,0,0) tid=(0,169,0)
GPGPU-Sim PTX: 29200000 instructions simulated : ctaid=(118,0,0) tid=(0,131,0)
GPGPU-Sim PTX: 29300000 instructions simulated : ctaid=(132,0,0) tid=(0,166,0)
GPGPU-Sim PTX: 29400000 instructions simulated : ctaid=(142,0,0) tid=(0,187,0)
GPGPU-Sim uArch: cycles simulated: 83000  inst.: 27662731 (ipc=333.3) sim_rate=297448 (inst/sec) elapsed = 0:0:01:33 / Fri Jan 16 06:25:30 2015
GPGPU-Sim PTX: 29500000 instructions simulated : ctaid=(114,0,0) tid=(0,184,0)
GPGPU-Sim uArch: Shader 7 finished CTA #0 (83442,0), 5 CTAs running
GPGPU-Sim uArch: core:  7, cta: 0 initialized @(83443,0)
GPGPU-Sim uArch: cycles simulated: 83500  inst.: 27832048 (ipc=333.3) sim_rate=296085 (inst/sec) elapsed = 0:0:01:34 / Fri Jan 16 06:25:31 2015
GPGPU-Sim PTX: 29600000 instructions simulated : ctaid=(121,0,0) tid=(0,211,0)
GPGPU-Sim PTX: 29700000 instructions simulated : ctaid=(135,0,0) tid=(0,246,0)
GPGPU-Sim uArch: Shader 11 finished CTA #1 (84041,0), 5 CTAs running
GPGPU-Sim uArch: core: 11, cta: 1 initialized @(84042,0)
GPGPU-Sim PTX: 29800000 instructions simulated : ctaid=(134,0,0) tid=(0,95,0)
GPGPU-Sim PTX: 29900000 instructions simulated : ctaid=(134,0,0) tid=(0,255,0)
GPGPU-Sim uArch: cycles simulated: 84500  inst.: 28165749 (ipc=333.3) sim_rate=296481 (inst/sec) elapsed = 0:0:01:35 / Fri Jan 16 06:25:32 2015
GPGPU-Sim uArch: Shader 10 finished CTA #1 (84536,0), 5 CTAs running
GPGPU-Sim uArch: core: 10, cta: 1 initialized @(84537,0)
GPGPU-Sim PTX: 30000000 instructions simulated : ctaid=(124,0,0) tid=(0,195,0)
GPGPU-Sim PTX: 30100000 instructions simulated : ctaid=(114,0,0) tid=(0,218,0)
GPGPU-Sim uArch: cycles simulated: 85000  inst.: 28324369 (ipc=333.2) sim_rate=295045 (inst/sec) elapsed = 0:0:01:36 / Fri Jan 16 06:25:33 2015
GPGPU-Sim PTX: 30200000 instructions simulated : ctaid=(112,0,0) tid=(0,211,0)
GPGPU-Sim PTX: 30300000 instructions simulated : ctaid=(126,0,0) tid=(0,189,0)
GPGPU-Sim uArch: Shader 13 finished CTA #0 (85613,0), 5 CTAs running
GPGPU-Sim uArch: core: 13, cta: 0 initialized @(85614,0)
GPGPU-Sim uArch: Shader 5 finished CTA #1 (85644,0), 5 CTAs running
GPGPU-Sim uArch: core:  5, cta: 1 initialized @(85645,0)
GPGPU-Sim uArch: Shader 8 finished CTA #0 (85680,0), 5 CTAs running
GPGPU-Sim uArch: core:  8, cta: 0 initialized @(85681,0)
GPGPU-Sim PTX: 30400000 instructions simulated : ctaid=(117,0,0) tid=(0,195,0)
GPGPU-Sim uArch: Shader 1 finished CTA #1 (85969,0), 5 CTAs running
GPGPU-Sim uArch: core:  1, cta: 1 initialized @(85970,0)
GPGPU-Sim uArch: cycles simulated: 86000  inst.: 28648262 (ipc=333.1) sim_rate=295342 (inst/sec) elapsed = 0:0:01:37 / Fri Jan 16 06:25:34 2015
GPGPU-Sim PTX: 30500000 instructions simulated : ctaid=(144,0,0) tid=(0,68,0)
GPGPU-Sim PTX: 30600000 instructions simulated : ctaid=(138,0,0) tid=(0,163,0)
GPGPU-Sim uArch: Shader 4 finished CTA #0 (86400,0), 5 CTAs running
GPGPU-Sim uArch: core:  4, cta: 0 initialized @(86401,0)
GPGPU-Sim PTX: 30700000 instructions simulated : ctaid=(113,0,0) tid=(0,118,0)
GPGPU-Sim uArch: Shader 0 finished CTA #0 (86683,0), 5 CTAs running
GPGPU-Sim uArch: core:  0, cta: 0 initialized @(86684,0)
GPGPU-Sim PTX: 30800000 instructions simulated : ctaid=(153,0,0) tid=(0,10,0)
GPGPU-Sim uArch: Shader 2 finished CTA #0 (86996,0), 5 CTAs running
GPGPU-Sim uArch: core:  2, cta: 0 initialized @(86997,0)
GPGPU-Sim uArch: cycles simulated: 87000  inst.: 28984245 (ipc=333.2) sim_rate=295757 (inst/sec) elapsed = 0:0:01:38 / Fri Jan 16 06:25:35 2015
GPGPU-Sim PTX: 30900000 instructions simulated : ctaid=(156,0,0) tid=(0,23,0)
GPGPU-Sim uArch: Shader 14 finished CTA #0 (87340,0), 5 CTAs running
GPGPU-Sim uArch: core: 14, cta: 0 initialized @(87341,0)
GPGPU-Sim uArch: cycles simulated: 87500  inst.: 29153991 (ipc=333.2) sim_rate=294484 (inst/sec) elapsed = 0:0:01:39 / Fri Jan 16 06:25:36 2015
GPGPU-Sim PTX: 31000000 instructions simulated : ctaid=(152,0,0) tid=(0,25,0)
GPGPU-Sim PTX: 31100000 instructions simulated : ctaid=(155,0,0) tid=(0,53,0)
GPGPU-Sim PTX: 31200000 instructions simulated : ctaid=(143,0,0) tid=(0,93,0)
GPGPU-Sim PTX: 31300000 instructions simulated : ctaid=(139,0,0) tid=(0,161,0)
GPGPU-Sim uArch: cycles simulated: 88500  inst.: 29478564 (ipc=333.1) sim_rate=294785 (inst/sec) elapsed = 0:0:01:40 / Fri Jan 16 06:25:37 2015
GPGPU-Sim PTX: 31400000 instructions simulated : ctaid=(143,0,0) tid=(0,83,0)
GPGPU-Sim PTX: 31500000 instructions simulated : ctaid=(148,0,0) tid=(0,77,0)
GPGPU-Sim uArch: Shader 3 finished CTA #0 (88959,0), 5 CTAs running
GPGPU-Sim uArch: core:  3, cta: 0 initialized @(88960,0)
GPGPU-Sim PTX: 31600000 instructions simulated : ctaid=(166,0,0) tid=(0,145,0)
GPGPU-Sim PTX: 31700000 instructions simulated : ctaid=(161,0,0) tid=(0,116,0)
GPGPU-Sim uArch: cycles simulated: 89500  inst.: 29815102 (ipc=333.1) sim_rate=295199 (inst/sec) elapsed = 0:0:01:41 / Fri Jan 16 06:25:38 2015
GPGPU-Sim PTX: 31800000 instructions simulated : ctaid=(138,0,0) tid=(0,173,0)
GPGPU-Sim uArch: Shader 12 finished CTA #1 (89982,0), 5 CTAs running
GPGPU-Sim uArch: core: 12, cta: 1 initialized @(89983,0)
GPGPU-Sim uArch: cycles simulated: 90000  inst.: 29989731 (ipc=333.2) sim_rate=294016 (inst/sec) elapsed = 0:0:01:42 / Fri Jan 16 06:25:39 2015
GPGPU-Sim PTX: 31900000 instructions simulated : ctaid=(142,0,0) tid=(0,204,0)
GPGPU-Sim PTX: 32000000 instructions simulated : ctaid=(134,0,0) tid=(0,140,0)
GPGPU-Sim PTX: 32100000 instructions simulated : ctaid=(161,0,0) tid=(0,5,0)
GPGPU-Sim PTX: 32200000 instructions simulated : ctaid=(148,0,0) tid=(0,151,0)
GPGPU-Sim uArch: cycles simulated: 91000  inst.: 30331151 (ipc=333.3) sim_rate=294477 (inst/sec) elapsed = 0:0:01:43 / Fri Jan 16 06:25:40 2015
GPGPU-Sim PTX: 32300000 instructions simulated : ctaid=(151,0,0) tid=(0,140,0)
GPGPU-Sim uArch: Shader 6 finished CTA #1 (91268,0), 5 CTAs running
GPGPU-Sim uArch: core:  6, cta: 1 initialized @(91269,0)
GPGPU-Sim PTX: 32400000 instructions simulated : ctaid=(141,0,0) tid=(0,220,0)
GPGPU-Sim PTX: 32500000 instructions simulated : ctaid=(147,0,0) tid=(0,234,0)
GPGPU-Sim PTX: 32600000 instructions simulated : ctaid=(148,0,0) tid=(0,235,0)
GPGPU-Sim uArch: cycles simulated: 92000  inst.: 30675413 (ipc=333.4) sim_rate=294955 (inst/sec) elapsed = 0:0:01:44 / Fri Jan 16 06:25:41 2015
GPGPU-Sim PTX: 32700000 instructions simulated : ctaid=(166,0,0) tid=(0,76,0)
GPGPU-Sim uArch: cycles simulated: 92500  inst.: 30837957 (ipc=333.4) sim_rate=293694 (inst/sec) elapsed = 0:0:01:45 / Fri Jan 16 06:25:42 2015
GPGPU-Sim PTX: 32800000 instructions simulated : ctaid=(142,0,0) tid=(0,181,0)
GPGPU-Sim PTX: 32900000 instructions simulated : ctaid=(155,0,0) tid=(0,142,0)
GPGPU-Sim PTX: 33000000 instructions simulated : ctaid=(150,0,0) tid=(0,184,0)
GPGPU-Sim PTX: 33100000 instructions simulated : ctaid=(153,0,0) tid=(0,132,0)
GPGPU-Sim uArch: Shader 0 finished CTA #1 (93492,0), 5 CTAs running
GPGPU-Sim uArch: core:  0, cta: 1 initialized @(93493,0)
[...]
gpgpu_stall_shd_mem[s_mem][bk_conf] = 0
gpgpu_stall_shd_mem[gl_mem][bk_conf] = 0
gpgpu_stall_shd_mem[gl_mem][coal_stall] = 115002
gpgpu_stall_shd_mem[gl_mem][data_port_stall] = 0
gpgpu_stall_shd_mem[g_mem_ld][mshr_rc] = 0
gpgpu_stall_shd_mem[g_mem_ld][icnt_rc] = 0
gpgpu_stall_shd_mem[g_mem_ld][wb_icnt_rc] = 0
gpgpu_stall_shd_mem[g_mem_ld][wb_rsrv_fail] = 0
gpgpu_stall_shd_mem[g_mem_st][mshr_rc] = 0
gpgpu_stall_shd_mem[g_mem_st][icnt_rc] = 0
gpgpu_stall_shd_mem[g_mem_st][wb_icnt_rc] = 0
gpgpu_stall_shd_mem[g_mem_st][wb_rsrv_fail] = 0
gpgpu_stall_shd_mem[l_mem_ld][mshr_rc] = 0
gpgpu_stall_shd_mem[l_mem_ld][icnt_rc] = 0
gpgpu_stall_shd_mem[l_mem_ld][wb_icnt_rc] = 0
gpgpu_stall_shd_mem[l_mem_ld][wb_rsrv_fail] = 0
gpgpu_stall_shd_mem[l_mem_st][mshr_rc] = 0
gpgpu_stall_shd_mem[l_mem_st][icnt_rc] = 0
gpgpu_stall_shd_mem[l_mem_ld][wb_icnt_rc] = 0
gpgpu_stall_shd_mem[l_mem_ld][wb_rsrv_fail] = 0
gpu_reg_bank_conflict_stalls = 0
Warp Occupancy Distribution:
Stall:639605	W0_Idle:156960	W0_Scoreboard:245089	W1:895870	W2:438206	W3:301298	W4:194538	W5:144260	W6:116160	W7:102954	W8:87904	W9:79360	W10:71968	W11:65632	W12:57696	W13:51264	W14:44016	W15:44704	W16:38368	W17:31392	W18:30752	W19:31504	W20:33392	W21:27312	W22:26800	W23:25040	W24:26576	W25:26576	W26:24368	W27:23248	W28:20832	W29:20912	W30:17104	W31:21216	W32:1095296
traffic_breakdown_coretomem[CONST_ACC_R] = 120 {8:15,}
traffic_breakdown_coretomem[GLOBAL_ACC_W] = 2621440 {40:65536,}
traffic_breakdown_coretomem[INST_ACC_R] = 480 {8:60,}
traffic_breakdown_memtocore[CONST_ACC_R] = 1080 {72:15,}
traffic_breakdown_memtocore[GLOBAL_ACC_W] = 524288 {8:65536,}
traffic_breakdown_memtocore[INST_ACC_R] = 8160 {136:60,}
maxmrqlatency = 92 
maxdqlatency = 0 
maxmflatency = 487 
averagemflatency = 172 
max_icnt2mem_latency = 315 
max_icnt2sh_latency = 183174 
mrq_lat_table:592 	84 	237 	67 	129 	175 	66 	0 	0 	0 	0 	0 	0 	0 	0 	0 	0 	0 	0 	0 	0 	0 	0 	0 	0 	0 	0 	0 	0 	0 	0 	0 	
dq_lat_table:0 	0 	0 	0 	0 	0 	0 	0 	0 	0 	0 	0 	0 	0 	0 	0 	0 	0 	0 	0 	0 	0 	0 	0 	0 	0 	0 	0 	0 	0 	0 	0 	
mf_lat_table:0 	0 	0 	0 	0 	0 	0 	64080 	1471 	0 	0 	0 	0 	0 	0 	0 	0 	0 	0 	0 	0 	0 	0 	0 	0 	0 	0 	0 	0 	0 	0 	0 	
icnt2mem_lat_table:0 	0 	0 	5690 	15423 	43926 	196 	95 	281 	0 	0 	0 	0 	0 	0 	0 	0 	0 	0 	0 	0 	0 	0 	0 	
icnt2sh_lat_table:0 	0 	0 	2 	13 	0 	0 	0 	0 	0 	0 	2413 	711 	2400 	7386 	11521 	24455 	16650 	0 	0 	0 	0 	0 	0 	
mf_lat_pw_table:0 	0 	0 	0 	0 	0 	0 	345 	3 	0 	0 	0 	0 	0 	0 	0 	0 	0 	0 	0 	0 	0 	0 	0 	0 	0 	0 	0 	0 	0 	0 	0 	
maximum concurrent accesses to same row:
dram[0]:         1         0         0         0         0         0         0         0         0         0         0         0         0         0         0         0 
dram[1]:         0         0         0         0         0         0         0         0         0         0         0         0         0         0         0         0 
dram[2]:         0         0         0         0         0         0         0         0         0         0         0         0         0         0         0         0 
dram[3]:         0         0         0         0         0         0         0         0         0         0         0         0         0         0         0         0 
dram[4]:         0         0         0         0         0         0         0         0         0         0         0         0         0         0         0         0 
dram[5]:         0         0         0         0         0         0         0         0         0         0         0         0         0         0         0         0 
maximum service time to same row:
dram[0]:       369         0         0         0      2874      2891      2893      2875         0         0         0         0         0         0         0         0 
dram[1]:      1509         0         0         0      2871      2888      2890      2872         0         0         0         0         0         0         0         0 
dram[2]:         0         0         0         0      2868      2885      2887      2869         0         0         0         0         0         0         0         0 
dram[3]:         0         0         0         0      2865      2882      2884      2866         0         0         0         0         0         0         0         0 
dram[4]:         0         0         0         0      2897      2879      2881      2863         0         0         0         0         0         0         0         0 
dram[5]:         0         0         0         0      2894      2876      2878      2860         0         0         0         0         0         0         0         0 
average row accesses per activate:
dram[0]:  1.000000      -nan      -nan      -nan 31.000000 29.000000 83.000000 79.000000      -nan      -nan      -nan      -nan      -nan      -nan      -nan      -nan 
dram[1]:  2.000000      -nan      -nan      -nan 31.000000 29.000000 84.000000 79.000000      -nan      -nan      -nan      -nan      -nan      -nan      -nan      -nan 
dram[2]:      -nan      -nan      -nan      -nan 31.000000 36.000000 81.000000 78.000000      -nan      -nan      -nan      -nan      -nan      -nan      -nan      -nan 
dram[3]:      -nan      -nan      -nan      -nan 31.000000 36.000000 81.000000 78.000000      -nan      -nan      -nan      -nan      -nan      -nan      -nan      -nan 
dram[4]:      -nan      -nan      -nan      -nan 29.000000 36.000000 80.000000 79.000000      -nan      -nan      -nan      -nan      -nan      -nan      -nan      -nan 
dram[5]:      -nan      -nan      -nan      -nan 29.000000 36.000000 80.000000 79.000000      -nan      -nan      -nan      -nan      -nan      -nan      -nan      -nan 
average row locality = 1350/28 = 48.214287
number of total memory accesses made:
dram[0]:         0         0         0         0         0         0         0         0         0         0         0         0         0         0         0         0 
dram[1]:         0         0         0         0         0         0         0         0         0         0         0         0         0         0         0         0 
dram[2]:         0         0         0         0         0         0         0         0         0         0         0         0         0         0         0         0 
dram[3]:         0         0         0         0         0         0         0         0         0         0         0         0         0         0         0         0 
dram[4]:         0         0         0         0         0         0         0         0         0         0         0         0         0         0         0         0 
dram[5]:         0         0         0         0         0         0         0         0         0         0         0         0         0         0         0         0 
total accesses: 0
min_bank_accesses = 0!
min_chip_accesses = 0!
number of total read accesses:
dram[0]:         3         0         0         0        10        10        32        32         0         0         0         0         0         0         0         0 
dram[1]:         2         0         0         0        10        10        32        32         0         0         0         0         0         0         0         0 
dram[2]:         0         0         0         0        10        12        32        32         0         0         0         0         0         0         0         0 
dram[3]:         0         0         0         0        10        12        32        32         0         0         0         0         0         0         0         0 
dram[4]:         0         0         0         0        10        12        32        32         0         0         0         0         0         0         0         0 
dram[5]:         0         0         0         0        10        12        32        32         0         0         0         0         0         0         0         0 
total reads: 517
min_bank_accesses = 0!
chip skew: 87/86 = 1.01
number of total write accesses:
dram[0]:         0         0         0         0        21        19        51        47         0         0         0         0         0         0         0         0 
dram[1]:         0         0         0         0        21        19        52        47         0         0         0         0         0         0         0         0 
dram[2]:         0         0         0         0        21        24        49        46         0         0         0         0         0         0         0         0 
dram[3]:         0         0         0         0        21        24        49        46         0         0         0         0         0         0         0         0 
dram[4]:         0         0         0         0        19        24        48        47         0         0         0         0         0         0         0         0 
dram[5]:         0         0         0         0        19        24        48        47         0         0         0         0         0         0         0         0 
total reads: 833
min_bank_accesses = 0!
chip skew: 140/138 = 1.01
average mf latency per bank:
dram[0]:       1300    none      none      none        7214      7662      8604      8866    none      none      none      none      none      none      none      none  
dram[1]:          0    none      none      none        7168      7606      8449      8803    none      none      none      none      none      none      none      none  
dram[2]:     none      none      none      none        7119      7452      8687      9170    none      none      none      none      none      none      none      none  
dram[3]:     none      none      none      none        7064      7396      8623      9107    none      none      none      none      none      none      none      none  
dram[4]:     none      none      none      none        7762      7317      8879      8908    none      none      none      none      none      none      none      none  
dram[5]:     none      none      none      none        7711      7261      8818      8840    none      none      none      none      none      none      none      none  
maximum mf latency per bank:
dram[0]:        278         0         0         0       431       427       480       459         0         0         0         0         0         0         0         0
dram[1]:          0         0         0         0       430       427       487       466         0         0         0         0         0         0         0         0
dram[2]:          0         0         0         0       431       460       450       484         0         0         0         0         0         0         0         0
dram[3]:          0         0         0         0       430       459       457       483         0         0         0         0         0         0         0         0
dram[4]:          0         0         0         0       427       432       451       459         0         0         0         0         0         0         0         0
dram[5]:          0         0         0         0       427       430       460       456         0         0         0         0         0         0         0         0
Memory Partition 0: 
Cache L2_bank_000:
MSHR contents

Cache L2_bank_001:
MSHR contents

In Dram Latency Queue (total = 0): 
DRAM[0]: 16 bks, busW=4 BL=8 CL=12, tRRD=2 tCCD=6, tRCD=12 tRAS=28 tRP=12 tRC=40
n_cmd=241790 n_nop=241469 n_act=7 n_pre=2 n_req=225 n_rd=174 n_write=138 bw_util=0.002581
n_activity=2253 dram_eff=0.277
bk0: 6a 241718i bk1: 0a 241789i bk2: 0a 241792i bk3: 0a 241792i bk4: 20a 241505i bk5: 20a 241373i bk6: 64a 240810i bk7: 64a 240853i bk8: 0a 241788i bk9: 0a 241788i bk10: 0a 241789i bk11: 0a 241790i bk12: 0a 241790i bk13: 0a 241790i bk14: 0a 241790i bk15: 0a 241790i 
dram_util_bins: 0 0 0 0 0 0 0 0 0 0
dram_eff_bins: 0 0 0 0 0 0 0 0 0 0
mrqq: max=16 avg=0.0169941
Memory Partition 1: 
Cache L2_bank_002:
MSHR contents

Cache L2_bank_003:
MSHR contents

In Dram Latency Queue (total = 0): 
DRAM[1]: 16 bks, busW=4 BL=8 CL=12, tRRD=2 tCCD=6, tRCD=12 tRAS=28 tRP=12 tRC=40
n_cmd=241790 n_nop=241474 n_act=5 n_pre=0 n_req=225 n_rd=172 n_write=139 bw_util=0.002572
n_activity=2167 dram_eff=0.287
bk0: 4a 241770i bk1: 0a 241791i bk2: 0a 241791i bk3: 0a 241792i bk4: 20a 241515i bk5: 20a 241371i bk6: 64a 240805i bk7: 64a 240855i bk8: 0a 241788i bk9: 0a 241788i bk10: 0a 241789i bk11: 0a 241790i bk12: 0a 241790i bk13: 0a 241790i bk14: 0a 241790i bk15: 0a 241790i 
dram_util_bins: 0 0 0 0 0 0 0 0 0 0
dram_eff_bins: 0 0 0 0 0 0 0 0 0 0
mrqq: max=16 avg=0.0171802
Memory Partition 2: 
Cache L2_bank_004:
MSHR contents

Cache L2_bank_005:
MSHR contents

In Dram Latency Queue (total = 0): 
DRAM[2]: 16 bks, busW=4 BL=8 CL=12, tRRD=2 tCCD=6, tRCD=12 tRAS=28 tRP=12 tRC=40
n_cmd=241790 n_nop=241474 n_act=4 n_pre=0 n_req=226 n_rd=172 n_write=140 bw_util=0.002581
n_activity=2164 dram_eff=0.2884
bk0: 0a 241790i bk1: 0a 241792i bk2: 0a 241792i bk3: 0a 241792i bk4: 20a 241439i bk5: 24a 241343i bk6: 64a 240831i bk7: 64a 240822i bk8: 0a 241787i bk9: 0a 241788i bk10: 0a 241789i bk11: 0a 241790i bk12: 0a 241790i bk13: 0a 241790i bk14: 0a 241790i bk15: 0a 241790i 
dram_util_bins: 0 0 0 0 0 0 0 0 0 0
dram_eff_bins: 0 0 0 0 0 0 0 0 0 0
mrqq: max=14 avg=0.0158981
Memory Partition 3: 
Cache L2_bank_006:
MSHR contents

Cache L2_bank_007:
MSHR contents

In Dram Latency Queue (total = 0): 
DRAM[3]: 16 bks, busW=4 BL=8 CL=12, tRRD=2 tCCD=6, tRCD=12 tRAS=28 tRP=12 tRC=40
n_cmd=241790 n_nop=241474 n_act=4 n_pre=0 n_req=226 n_rd=172 n_write=140 bw_util=0.002581
n_activity=2164 dram_eff=0.2884
bk0: 0a 241790i bk1: 0a 241792i bk2: 0a 241792i bk3: 0a 241792i bk4: 20a 241439i bk5: 24a 241343i bk6: 64a 240832i bk7: 64a 240823i bk8: 0a 241787i bk9: 0a 241788i bk10: 0a 241789i bk11: 0a 241790i bk12: 0a 241790i bk13: 0a 241790i bk14: 0a 241790i bk15: 0a 241790i 
dram_util_bins: 0 0 0 0 0 0 0 0 0 0
dram_eff_bins: 0 0 0 0 0 0 0 0 0 0
mrqq: max=14 avg=0.0158898
Memory Partition 4: 
Cache L2_bank_008:
MSHR contents

Cache L2_bank_009:
MSHR contents

In Dram Latency Queue (total = 0): 
DRAM[4]: 16 bks, busW=4 BL=8 CL=12, tRRD=2 tCCD=6, tRCD=12 tRAS=28 tRP=12 tRC=40
n_cmd=241790 n_nop=241476 n_act=4 n_pre=0 n_req=224 n_rd=172 n_write=138 bw_util=0.002564
n_activity=2140 dram_eff=0.2897
bk0: 0a 241791i bk1: 0a 241792i bk2: 0a 241793i bk3: 0a 241793i bk4: 20a 241359i bk5: 24a 241392i bk6: 64a 240827i bk7: 64a 240827i bk8: 0a 241787i bk9: 0a 241787i bk10: 0a 241789i bk11: 0a 241789i bk12: 0a 241789i bk13: 0a 241789i bk14: 0a 241789i bk15: 0a 241790i 
dram_util_bins: 0 0 0 0 0 0 0 0 0 0
dram_eff_bins: 0 0 0 0 0 0 0 0 0 0
mrqq: max=13 avg=0.0157616
Memory Partition 5: 
Cache L2_bank_010:
MSHR contents

Cache L2_bank_011:
MSHR contents

In Dram Latency Queue (total = 0): 
DRAM[5]: 16 bks, busW=4 BL=8 CL=12, tRRD=2 tCCD=6, tRCD=12 tRAS=28 tRP=12 tRC=40
n_cmd=241790 n_nop=241476 n_act=4 n_pre=0 n_req=224 n_rd=172 n_write=138 bw_util=0.002564
n_activity=2139 dram_eff=0.2899
bk0: 0a 241791i bk1: 0a 241792i bk2: 0a 241793i bk3: 0a 241793i bk4: 20a 241359i bk5: 24a 241393i bk6: 64a 240827i bk7: 64a 240829i bk8: 0a 241787i bk9: 0a 241787i bk10: 0a 241789i bk11: 0a 241789i bk12: 0a 241789i bk13: 0a 241789i bk14: 0a 241789i bk15: 0a 241790i 
dram_util_bins: 0 0 0 0 0 0 0 0 0 0
dram_eff_bins: 0 0 0 0 0 0 0 0 0 0
mrqq: max=13 avg=0.0157285

========= L2 cache stats =========
L2_cache_bank[0]: Access = 5421, Miss = 45, Miss_rate = 0.008, Pending_hits = 39, Reservation_fails = 544
L2_cache_bank[1]: Access = 5376, Miss = 42, Miss_rate = 0.008, Pending_hits = 24, Reservation_fails = 225
L2_cache_bank[2]: Access = 5406, Miss = 44, Miss_rate = 0.008, Pending_hits = 37, Reservation_fails = 409
L2_cache_bank[3]: Access = 5376, Miss = 42, Miss_rate = 0.008, Pending_hits = 24, Reservation_fails = 226
L2_cache_bank[4]: Access = 5376, Miss = 42, Miss_rate = 0.008, Pending_hits = 28, Reservation_fails = 211
L2_cache_bank[5]: Access = 5632, Miss = 44, Miss_rate = 0.008, Pending_hits = 26, Reservation_fails = 233
L2_cache_bank[6]: Access = 5376, Miss = 42, Miss_rate = 0.008, Pending_hits = 28, Reservation_fails = 211
L2_cache_bank[7]: Access = 5632, Miss = 44, Miss_rate = 0.008, Pending_hits = 26, Reservation_fails = 233
L2_cache_bank[8]: Access = 5376, Miss = 42, Miss_rate = 0.008, Pending_hits = 25, Reservation_fails = 222
L2_cache_bank[9]: Access = 5632, Miss = 44, Miss_rate = 0.008, Pending_hits = 27, Reservation_fails = 208
L2_cache_bank[10]: Access = 5376, Miss = 42, Miss_rate = 0.008, Pending_hits = 25, Reservation_fails = 222
L2_cache_bank[11]: Access = 5632, Miss = 44, Miss_rate = 0.008, Pending_hits = 27, Reservation_fails = 207
L2_total_cache_accesses = 65611
L2_total_cache_misses = 517
L2_total_cache_miss_rate = 0.0079
L2_total_cache_pending_hits = 336
L2_total_cache_reservation_fails = 3151
L2_total_cache_breakdown:
	L2_cache_stats_breakdown[CONST_ACC_R][HIT] = 11
	L2_cache_stats_breakdown[CONST_ACC_R][HIT_RESERVED] = 3
	L2_cache_stats_breakdown[CONST_ACC_R][MISS] = 1
	L2_cache_stats_breakdown[CONST_ACC_R][RESERVATION_FAIL] = 109
	L2_cache_stats_breakdown[GLOBAL_ACC_W][HIT] = 64703
	L2_cache_stats_breakdown[GLOBAL_ACC_W][HIT_RESERVED] = 321
	L2_cache_stats_breakdown[GLOBAL_ACC_W][MISS] = 512
	L2_cache_stats_breakdown[GLOBAL_ACC_W][RESERVATION_FAIL] = 2617
	L2_cache_stats_breakdown[INST_ACC_R][HIT] = 44
	L2_cache_stats_breakdown[INST_ACC_R][HIT_RESERVED] = 12
	L2_cache_stats_breakdown[INST_ACC_R][MISS] = 4
	L2_cache_stats_breakdown[INST_ACC_R][RESERVATION_FAIL] = 425
L2_cache_data_port_util = 0.030
L2_cache_fill_port_util = 0.001

icnt_total_pkts_mem_to_simt=65881
icnt_total_pkts_simt_to_mem=131147
LD_mem_lat_dist  0 0 0 0 0 0 0 0 0 0 0 0 0 0 0 0 0 0 0 0 0 0 0 0 0 0 0
ST_mem_lat_dist  0 0 0 0 0 0 0 0 0 0 0 0 0 0 0 0 0 0 0 0 0 0 0 0 0 0 0
----------------------------Interconnect-DETAILS--------------------------------
Class 0:
Packet latency average = 14.7035
	minimum = 6
	maximum = 283
Network latency average = 9.99431
	minimum = 6
	maximum = 249
Slowest packet = 855
Flit latency average = 10.5274
	minimum = 6
	maximum = 248
Slowest flit = 1827
Fragmentation average = 0
	minimum = 0
	maximum = 0
Injected packet rate average = 0.0265324
	minimum = 0.0223884 (at node 3)
	maximum = 0.0307466 (at node 20)
Accepted packet rate average = 0.0265324
	minimum = 0.0223884 (at node 3)
	maximum = 0.0307466 (at node 20)
Injected flit rate average = 0.039838
	minimum = 0.029349 (at node 16)
	maximum = 0.0503398 (at node 2)
Accepted flit rate average= 0.039838
	minimum = 0.0224867 (at node 3)
	maximum = 0.0614931 (at node 20)
Injected packet length average = 1.50149
Accepted packet length average = 1.50149
Total in-flight flits = 0 (0 measured)
====== Overall Traffic Statistics ======
====== Traffic class 0 ======
Packet latency average = 14.7035 (1 samples)
	minimum = 6 (1 samples)
	maximum = 283 (1 samples)
Network latency average = 9.99431 (1 samples)
	minimum = 6 (1 samples)
	maximum = 249 (1 samples)
Flit latency average = 10.5274 (1 samples)
	minimum = 6 (1 samples)
	maximum = 248 (1 samples)
Fragmentation average = 0 (1 samples)
	minimum = 0 (1 samples)
	maximum = 0 (1 samples)
Injected packet rate average = 0.0265324 (1 samples)
	minimum = 0.0223884 (1 samples)
	maximum = 0.0307466 (1 samples)
Accepted packet rate average = 0.0265324 (1 samples)
	minimum = 0.0223884 (1 samples)
	maximum = 0.0307466 (1 samples)
Injected flit rate average = 0.039838 (1 samples)
	minimum = 0.029349 (1 samples)
	maximum = 0.0503398 (1 samples)
Accepted flit rate average = 0.039838 (1 samples)
	minimum = 0.0224867 (1 samples)
	maximum = 0.0614931 (1 samples)
Injected packet size average = 1.50149 (1 samples)
Accepted packet size average = 1.50149 (1 samples)
Hops average = 1 (1 samples)
----------------------------END-of-Interconnect-DETAILS-------------------------


gpgpu_simulation_time = 0 days, 0 hrs, 3 min, 8 sec (188 sec)
gpgpu_simulation_rate = 279040 (inst/sec)
gpgpu_simulation_rate = 974 (cycle/sec)
