

        *** GPGPU-Sim Simulator Version 3.2.2  [build 17315] ***


GPGPU-Sim PTX: simulation mode 0 (can change with PTX_SIM_MODE_FUNC environment variable:
               1=functional simulation only, 0=detailed performance simulator)
GPGPU-Sim: Configuration options:

-network_mode                           1 # Interconnection network mode
-inter_config_file   config_fermi_islip.icnt # Interconnection network config file
-gpgpu_ptx_use_cuobjdump                    1 # Use cuobjdump to extract ptx and sass from binaries
-gpgpu_experimental_lib_support                    0 # Try to extract code from cuda libraries [Broken because of unknown cudaGetExportTable]
-gpgpu_ptx_convert_to_ptxplus                    0 # Convert SASS (native ISA) to ptxplus and run ptxplus
-gpgpu_ptx_force_max_capability                   20 # Force maximum compute capability
-gpgpu_ptx_inst_debug_to_file                    0 # Dump executed instructions' debug information to file
-gpgpu_ptx_inst_debug_file       inst_debug.txt # Executed instructions' debug output file
-gpgpu_ptx_inst_debug_thread_uid                    1 # Thread UID for executed instructions' debug output
-gpgpu_simd_model                       1 # 1 = post-dominator
-gpgpu_shader_core_pipeline              1536:32 # shader core pipeline config, i.e., {<nthread>:<warpsize>}
-gpgpu_tex_cache:l1  4:128:24,L:R:m:N,F:128:4,128:2 # per-shader L1 texture cache  (READ-ONLY) config  {<nsets>:<bsize>:<assoc>,<rep>:<wr>:<alloc>:<wr_alloc>,<mshr>:<N>:<merge>,<mq>:<rf>}
-gpgpu_const_cache:l1 64:64:2,L:R:f:N,A:2:32,4 # per-shader L1 constant memory cache  (READ-ONLY) config  {<nsets>:<bsize>:<assoc>,<rep>:<wr>:<alloc>:<wr_alloc>,<mshr>:<N>:<merge>,<mq>} 
-gpgpu_cache:il1     4:128:4,L:R:f:N,A:2:32,4 # shader L1 instruction cache config  {<nsets>:<bsize>:<assoc>,<rep>:<wr>:<alloc>:<wr_alloc>,<mshr>:<N>:<merge>,<mq>} 
-gpgpu_cache:dl1     32:128:4,L:L:m:N,A:32:8,8 # per-shader L1 data cache config  {<nsets>:<bsize>:<assoc>,<rep>:<wr>:<alloc>:<wr_alloc>,<mshr>:<N>:<merge>,<mq> | none}
-gpgpu_cache:dl1PrefL1                 none # per-shader L1 data cache config  {<nsets>:<bsize>:<assoc>,<rep>:<wr>:<alloc>:<wr_alloc>,<mshr>:<N>:<merge>,<mq> | none}
-gpgpu_cache:dl1PreShared                 none # per-shader L1 data cache config  {<nsets>:<bsize>:<assoc>,<rep>:<wr>:<alloc>:<wr_alloc>,<mshr>:<N>:<merge>,<mq> | none}
-gmem_skip_L1D                          0 # global memory access skip L1D cache (implements -Xptxas -dlcm=cg, default=no skip)
-gpgpu_perfect_mem                      0 # enable perfect memory mode (no cache miss)
-n_regfile_gating_group                    4 # group of lanes that should be read/written together)
-gpgpu_clock_gated_reg_file                    0 # enable clock gated reg file for power calculations
-gpgpu_clock_gated_lanes                    0 # enable clock gated lanes for power calculations
-gpgpu_shader_registers                32768 # Number of registers per shader core. Limits number of concurrent CTAs. (default 8192)
-gpgpu_shader_cta                       8 # Maximum number of concurrent CTAs in shader (default 8)
-gpgpu_n_clusters                      15 # number of processing clusters
-gpgpu_n_cores_per_cluster                    1 # number of simd cores per cluster
-gpgpu_n_cluster_ejection_buffer_size                    8 # number of packets in ejection buffer
-gpgpu_n_ldst_response_buffer_size                    2 # number of response packets in ld/st unit ejection buffer
-gpgpu_shmem_size                   16384 # Size of shared memory per shader core (default 16kB)
-gpgpu_shmem_size                   49152 # Size of shared memory per shader core (default 16kB)
-gpgpu_shmem_size_PrefL1                16384 # Size of shared memory per shader core (default 16kB)
-gpgpu_shmem_size_PrefShared                16384 # Size of shared memory per shader core (default 16kB)
-gpgpu_shmem_num_banks                   32 # Number of banks in the shared memory in each shader core (default 16)
-gpgpu_shmem_limited_broadcast                    0 # Limit shared memory to do one broadcast per cycle (default on)
-gpgpu_shmem_warp_parts                    1 # Number of portions a warp is divided into for shared memory bank conflict check 
-gpgpu_warpdistro_shader                   -1 # Specify which shader core to collect the warp size distribution from
-gpgpu_warp_issue_shader                    0 # Specify which shader core to collect the warp issue distribution from
-gpgpu_local_mem_map                    1 # Mapping from local memory space address to simulated GPU physical address space (default = enabled)
-gpgpu_num_reg_banks                   16 # Number of register banks (default = 8)
-gpgpu_reg_bank_use_warp_id                    0 # Use warp ID in mapping registers to banks (default = off)
-gpgpu_operand_collector_num_units_sp                    6 # number of collector units (default = 4)
-gpgpu_operand_collector_num_units_sfu                    8 # number of collector units (default = 4)
-gpgpu_operand_collector_num_units_mem                    2 # number of collector units (default = 2)
-gpgpu_operand_collector_num_units_gen                    0 # number of collector units (default = 0)
-gpgpu_operand_collector_num_in_ports_sp                    2 # number of collector unit in ports (default = 1)
-gpgpu_operand_collector_num_in_ports_sfu                    1 # number of collector unit in ports (default = 1)
-gpgpu_operand_collector_num_in_ports_mem                    1 # number of collector unit in ports (default = 1)
-gpgpu_operand_collector_num_in_ports_gen                    0 # number of collector unit in ports (default = 0)
-gpgpu_operand_collector_num_out_ports_sp                    2 # number of collector unit in ports (default = 1)
-gpgpu_operand_collector_num_out_ports_sfu                    1 # number of collector unit in ports (default = 1)
-gpgpu_operand_collector_num_out_ports_mem                    1 # number of collector unit in ports (default = 1)
-gpgpu_operand_collector_num_out_ports_gen                    0 # number of collector unit in ports (default = 0)
-gpgpu_coalesce_arch                   13 # Coalescing arch (default = 13, anything else is off for now)
-gpgpu_num_sched_per_core                    2 # Number of warp schedulers per core
-gpgpu_max_insn_issue_per_warp                    1 # Max number of instructions that can be issued per warp in one cycle by scheduler
-gpgpu_simt_core_sim_order                    1 # Select the simulation order of cores in a cluster (0=Fix, 1=Round-Robin)
-gpgpu_pipeline_widths        2,1,1,2,1,1,2 # Pipeline widths ID_OC_SP,ID_OC_SFU,ID_OC_MEM,OC_EX_SP,OC_EX_SFU,OC_EX_MEM,EX_WB
-gpgpu_num_sp_units                     2 # Number of SP units (default=1)
-gpgpu_num_sfu_units                    1 # Number of SF units (default=1)
-gpgpu_num_mem_units                    1 # Number if ldst units (default=1) WARNING: not hooked up to anything
-gpgpu_scheduler                      gto # Scheduler configuration: < lrr | gto | two_level_active > If two_level_active:<num_active_warps>:<inner_prioritization>:<outer_prioritization>For complete list of prioritization values see shader.h enum scheduler_prioritization_typeDefault: gto
-gpgpu_dram_scheduler                    1 # 0 = fifo, 1 = FR-FCFS (defaul)
-gpgpu_dram_partition_queues              8:8:8:8 # i2$:$2d:d2$:$2i
-l2_ideal                               0 # Use a ideal L2 cache that always hit
-gpgpu_cache:dl2     64:128:8,L:B:m:W,A:32:4,4:0,32 # unified banked L2 data cache config  {<nsets>:<bsize>:<assoc>,<rep>:<wr>:<alloc>:<wr_alloc>,<mshr>:<N>:<merge>,<mq>}
-gpgpu_cache:dl2_texture_only                    0 # L2 cache used for texture only
-gpgpu_n_mem                            6 # number of memory modules (e.g. memory controllers) in gpu
-gpgpu_n_sub_partition_per_mchannel                    2 # number of memory subpartition in each memory module
-gpgpu_n_mem_per_ctrlr                    2 # number of memory chips per memory controller
-gpgpu_memlatency_stat                   14 # track and display latency statistics 0x2 enables MC, 0x4 enables queue logs
-gpgpu_frfcfs_dram_sched_queue_size                   16 # 0 = unlimited (default); # entries per chip
-gpgpu_dram_return_queue_size                  116 # 0 = unlimited (default); # entries per chip
-gpgpu_dram_buswidth                    4 # default = 4 bytes (8 bytes per cycle at DDR)
-gpgpu_dram_burst_length                    8 # Burst length of each DRAM request (default = 4 data bus cycle)
-dram_data_command_freq_ratio                    4 # Frequency ratio between DRAM data bus and command bus (default = 2 times, i.e. DDR)
-gpgpu_dram_timing_opt nbk=16:CCD=2:RRD=6:RCD=12:RAS=28:RP=12:RC=40: CL=12:WL=4:CDLR=5:WR=12:nbkgrp=4:CCDL=3:RTPL=2 # DRAM timing parameters = {nbk:tCCD:tRRD:tRCD:tRAS:tRP:tRC:CL:WL:tCDLR:tWR:nbkgrp:tCCDL:tRTPL}
-rop_latency                          120 # ROP queue latency (default 85)
-dram_latency                         100 # DRAM latency (default 30)
-gpgpu_mem_addr_mapping dramid@8;00000000.00000000.00000000.00000000.0000RRRR.RRRRRRRR.BBBCCCCB.CCSSSSSS # mapping memory address to dram model {dramid@<start bit>;<memory address map>}
-gpgpu_mem_addr_test                    0 # run sweep test to check address mapping for aliased address
-gpgpu_mem_address_mask                    1 # 0 = old addressing mask, 1 = new addressing mask, 2 = new add. mask + flipped bank sel and chip sel bits
-gpuwattch_xml_file         gpuwattch.xml # GPUWattch XML file
-power_simulation_enabled                    0 # Turn on power simulator (1=On, 0=Off)
-power_per_cycle_dump                    0 # Dump detailed power output each cycle
-power_trace_enabled                    0 # produce a file for the power trace (1=On, 0=Off)
-power_trace_zlevel                     6 # Compression level of the power trace output log (0=no comp, 9=highest)
-steady_power_levels_enabled                    0 # produce a file for the steady power levels (1=On, 0=Off)
-steady_state_definition                  8:4 # allowed deviation:number of samples
-gpgpu_max_cycle                        0 # terminates gpu simulation early (0 = no limit)
-gpgpu_max_insn                         0 # terminates gpu simulation early (0 = no limit)
-gpgpu_max_cta                          0 # terminates gpu simulation early (0 = no limit)
-gpgpu_runtime_stat                   500 # display runtime statistics such as dram utilization {<freq>:<flag>}
-liveness_message_freq                    1 # Minimum number of seconds between simulation liveness messages (0 = always print)
-gpgpu_flush_l1_cache                    0 # Flush L1 cache at the end of each kernel call
-gpgpu_flush_l2_cache                    0 # Flush L2 cache at the end of each kernel call
-gpgpu_deadlock_detect                    1 # Stop the simulation at deadlock (1=on (default), 0=off)
-gpgpu_ptx_instruction_classification                    0 # if enabled will classify ptx instruction types per kernel (Max 255 kernels now)
-gpgpu_ptx_sim_mode                     0 # Select between Performance (default) or Functional simulation (1)
-gpgpu_clock_domains 700.0:700.0:700.0:924.0 # Clock Domain Frequencies in MhZ {<Core Clock>:<ICNT Clock>:<L2 Clock>:<DRAM Clock>}
-gpgpu_max_concurrent_kernel                    8 # maximum kernels that can run concurrently on GPU
-gpgpu_cflog_interval                    0 # Interval between each snapshot in control flow logger
-visualizer_enabled                     0 # Turn on visualizer output (1=On, 0=Off)
-visualizer_outputfile                 NULL # Specifies the output log file for visualizer
-visualizer_zlevel                      6 # Compression level of the visualizer output log (0=no comp, 9=highest)
-trace_enabled                          0 # Turn on traces
-trace_components                    none # comma seperated list of traces to enable. Complete list found in trace_streams.tup. Default none
-trace_sampling_core                    0 # The core which is printed using CORE_DPRINTF. Default 0
-trace_sampling_memory_partition                   -1 # The memory partition which is printed using MEMPART_DPRINTF. Default -1 (i.e. all)
-enable_ptx_file_line_stats                    1 # Turn on PTX source line statistic profiling. (1 = On)
-ptx_line_stats_filename gpgpu_inst_stats.txt # Output file for PTX source line statistics.
-save_embedded_ptx                      0 # saves ptx files embedded in binary as <n>.ptx
-keep                                   0 # keep intermediate files created by GPGPU-Sim when interfacing with external programs
-gpgpu_ptx_save_converted_ptxplus                    0 # Saved converted ptxplus to a file
-ptx_opcode_latency_int         4,13,4,5,145 # Opcode latencies for integers <ADD,MAX,MUL,MAD,DIV>Default 1,1,19,25,145
-ptx_opcode_latency_fp          4,13,4,5,39 # Opcode latencies for single precision floating points <ADD,MAX,MUL,MAD,DIV>Default 1,1,1,1,30
-ptx_opcode_latency_dp         8,19,8,8,330 # Opcode latencies for double precision floating points <ADD,MAX,MUL,MAD,DIV>Default 8,8,8,8,335
-ptx_opcode_initiation_int            1,2,2,1,8 # Opcode initiation intervals for integers <ADD,MAX,MUL,MAD,DIV>Default 1,1,4,4,32
-ptx_opcode_initiation_fp            1,2,1,1,4 # Opcode initiation intervals for single precision floating points <ADD,MAX,MUL,MAD,DIV>Default 1,1,1,1,5
-ptx_opcode_initiation_dp         8,16,8,8,130 # Opcode initiation intervals for double precision floating points <ADD,MAX,MUL,MAD,DIV>Default 8,8,8,8,130
DRAM Timing Options:
nbk                                    16 # number of banks
CCD                                     2 # column to column delay
RRD                                     6 # minimal delay between activation of rows in different banks
RCD                                    12 # row to column delay
RAS                                    28 # time needed to activate row
RP                                     12 # time needed to precharge (deactivate) row
RC                                     40 # row cycle time
CDLR                                    5 # switching from write to read (changes tWTR)
WR                                     12 # last data-in to row precharge
CL                                     12 # CAS latency
WL                                      4 # Write latency
nbkgrp                                  4 # number of bank groups
CCDL                                    3 # column to column delay between accesses to different bank groups
RTPL                                    2 # read to precharge delay between accesses to different bank groups
Total number of memory sub partition = 12
addr_dec_mask[CHIP]  = 0000000000000000 	high:64 low:0
addr_dec_mask[BK]    = 000000000000e100 	high:16 low:8
addr_dec_mask[ROW]   = 000000000fff0000 	high:28 low:16
addr_dec_mask[COL]   = 0000000000001eff 	high:13 low:0
addr_dec_mask[BURST] = 000000000000003f 	high:6 low:0
sub_partition_id_mask = 0000000000000100
GPGPU-Sim uArch: clock freqs: 700000000.000000:700000000.000000:700000000.000000:924000000.000000
GPGPU-Sim uArch: clock periods: 0.00000000142857142857:0.00000000142857142857:0.00000000142857142857:0.00000000108225108225
*** Initializing Memory Statistics ***
GPGPU-Sim uArch: interconnect node map (shaderID+MemID to icntID)
GPGPU-Sim uArch: Memory nodes ID start from index: 15
GPGPU-Sim uArch:    0   1   2   3   4
GPGPU-Sim uArch:    5   6   7   8   9
GPGPU-Sim uArch:   10  11  12  13  14
GPGPU-Sim uArch:   15  16  17  18  19
GPGPU-Sim uArch:   20  21  22  23  24
GPGPU-Sim uArch:   25  26
GPGPU-Sim uArch: interconnect node reverse map (icntID to shaderID+MemID)
GPGPU-Sim uArch: Memory nodes start from ID: 15
GPGPU-Sim uArch:    0   1   2   3   4
GPGPU-Sim uArch:    5   6   7   8   9
GPGPU-Sim uArch:   10  11  12  13  14
GPGPU-Sim uArch:   15  16  17  18  19
GPGPU-Sim uArch:   20  21  22  23  24
GPGPU-Sim uArch:   25  26
35e4989e7e2383a1c0ff536b7ce586fc  /afs/tu-berlin.de/home/t/tobias.fuchs/irb-ubuntu/Dokumente/new4/MCS1415/CUDA/assignment1/gpumcs/gpu_out
GPGPU-Sim uArch: performance model initialization complete.
GPGPU-Sim PTX: __cudaRegisterFatBinary, fat_cubin_handle = 1, filename=gpu_julia.cu
self exe links to: /afs/tu-berlin.de/home/t/tobias.fuchs/irb-ubuntu/Dokumente/new4/MCS1415/CUDA/assignment1/gpumcs/gpu_out
Running md5sum using "md5sum /afs/tu-berlin.de/home/t/tobias.fuchs/irb-ubuntu/Dokumente/new4/MCS1415/CUDA/assignment1/gpumcs/gpu_out "
Running cuobjdump using "$CUDA_INSTALL_PATH/bin/cuobjdump -ptx -elf -sass /afs/tu-berlin.de/home/t/tobias.fuchs/irb-ubuntu/Dokumente/new4/MCS1415/CUDA/assignment1/gpumcs/gpu_out > _cuobjdump_complete_output_H33hEr"
Parsing file _cuobjdump_complete_output_H33hEr
######### cuobjdump parser ########
## Adding new section ELF
Adding arch: sm_10
Adding identifier: gpu_julia.cu
## Adding new section PTX
Adding ptx filename: _cuobjdump_1.ptx
Adding arch: sm_10
Adding identifier: gpu_julia.cu
Done parsing!!!
GPGPU-Sim PTX: __cudaRegisterFunction _Z12calc_fractaliiffPh : hostFun 0x0x401073, fat_cubin_handle = 1
GPGPU-Sim PTX: instruction assembly for function '_Z12calc_fractaliiffPh'...   done.
GPGPU-Sim PTX: finding reconvergence points for '_Z12calc_fractaliiffPh'...
GPGPU-Sim PTX: Finding dominators for '_Z12calc_fractaliiffPh'...
GPGPU-Sim PTX: Finding immediate dominators for '_Z12calc_fractaliiffPh'...
GPGPU-Sim PTX: Finding postdominators for '_Z12calc_fractaliiffPh'...
GPGPU-Sim PTX: Finding immediate postdominators for '_Z12calc_fractaliiffPh'...
GPGPU-Sim PTX: pre-decoding instructions for '_Z12calc_fractaliiffPh'...
GPGPU-Sim PTX: reconvergence points for _Z12calc_fractaliiffPh...
GPGPU-Sim PTX:  1 (potential) branch divergence @  PC=0x100 (_1.ptx:101) @%p1 bra $Lt_0_258;
GPGPU-Sim PTX:    immediate post dominator      @  PC=0x158 (_1.ptx:117) ld.param.s32 %r4, [__cudaparm__Z12calc_fractaliiffPh_width];
GPGPU-Sim PTX:  2 (potential) branch divergence @  PC=0x150 (_1.ptx:114) @%p2 bra $Lt_0_2306;
GPGPU-Sim PTX:    immediate post dominator      @  PC=0x158 (_1.ptx:117) ld.param.s32 %r4, [__cudaparm__Z12calc_fractaliiffPh_width];
GPGPU-Sim PTX: ... end of reconvergence points for _Z12calc_fractaliiffPh
GPGPU-Sim PTX: ... done pre-decoding instructions for '_Z12calc_fractaliiffPh'.
GPGPU-Sim PTX: finished parsing EMBEDDED .ptx file _1.ptx
Adding _cuobjdump_1.ptx with cubin handle 1
GPGPU-Sim PTX: extracting embedded .ptx to temporary file "_ptx_fLkt8C"
Running: cat _ptx_fLkt8C | sed 's/.version 1.5/.version 1.4/' | sed 's/, texmode_independent//' | sed 's/\(\.extern \.const\[1\] .b8 \w\+\)\[\]/\1\[1\]/' | sed 's/const\[.\]/const\[0\]/g' > _ptx2_d0VnFO
GPGPU-Sim PTX: generating ptxinfo using "$CUDA_INSTALL_PATH/bin/ptxas --gpu-name=sm_20 -v _ptx2_d0VnFO --output-file  /dev/null 2> _ptx_fLkt8Cinfo"
GPGPU-Sim PTX: Kernel '_Z12calc_fractaliiffPh' : regs=9, lmem=0, smem=0, cmem=60
GPGPU-Sim PTX: removing ptxinfo using "rm -f _ptx_fLkt8C _ptx2_d0VnFO _ptx_fLkt8Cinfo"
GPGPU-Sim PTX: loading globals with explicit initializers... 
GPGPU-Sim PTX: finished loading globals (0 bytes total).
GPGPU-Sim PTX: loading constants with explicit initializers...  done.

GPGPU-Sim PTX: cudaLaunch for 0x0x401073 (mode=performance simulation) on stream 0
GPGPU-Sim PTX: pushing kernel '_Z12calc_fractaliiffPh' to stream 0, gridDim= (256,8,1) blockDim = (1,32,1) 
kernel '_Z12calc_fractaliiffPh' transfer to GPU hardware scheduler
GPGPU-Sim uArch: Shader 1 bind to kernel 1 '_Z12calc_fractaliiffPh'
GPGPU-Sim uArch: CTA/core = 8, limited by: cta_limit
GPGPU-Sim uArch: core:  1, cta: 0 initialized @(1,0)
GPGPU-Sim uArch: Shader 2 bind to kernel 1 '_Z12calc_fractaliiffPh'
GPGPU-Sim uArch: core:  2, cta: 0 initialized @(1,0)
GPGPU-Sim uArch: Shader 3 bind to kernel 1 '_Z12calc_fractaliiffPh'
GPGPU-Sim uArch: core:  3, cta: 0 initialized @(1,0)
GPGPU-Sim uArch: Shader 4 bind to kernel 1 '_Z12calc_fractaliiffPh'
GPGPU-Sim uArch: core:  4, cta: 0 initialized @(1,0)
GPGPU-Sim uArch: Shader 5 bind to kernel 1 '_Z12calc_fractaliiffPh'
GPGPU-Sim uArch: core:  5, cta: 0 initialized @(1,0)
GPGPU-Sim uArch: Shader 6 bind to kernel 1 '_Z12calc_fractaliiffPh'
GPGPU-Sim uArch: core:  6, cta: 0 initialized @(1,0)
GPGPU-Sim uArch: Shader 7 bind to kernel 1 '_Z12calc_fractaliiffPh'
GPGPU-Sim uArch: core:  7, cta: 0 initialized @(1,0)
GPGPU-Sim uArch: Shader 8 bind to kernel 1 '_Z12calc_fractaliiffPh'
GPGPU-Sim uArch: core:  8, cta: 0 initialized @(1,0)
GPGPU-Sim uArch: Shader 9 bind to kernel 1 '_Z12calc_fractaliiffPh'
GPGPU-Sim uArch: core:  9, cta: 0 initialized @(1,0)
GPGPU-Sim uArch: Shader 10 bind to kernel 1 '_Z12calc_fractaliiffPh'
GPGPU-Sim uArch: core: 10, cta: 0 initialized @(1,0)
GPGPU-Sim uArch: Shader 11 bind to kernel 1 '_Z12calc_fractaliiffPh'
GPGPU-Sim uArch: core: 11, cta: 0 initialized @(1,0)
GPGPU-Sim uArch: Shader 12 bind to kernel 1 '_Z12calc_fractaliiffPh'
GPGPU-Sim uArch: core: 12, cta: 0 initialized @(1,0)
GPGPU-Sim uArch: Shader 13 bind to kernel 1 '_Z12calc_fractaliiffPh'
GPGPU-Sim uArch: core: 13, cta: 0 initialized @(1,0)
GPGPU-Sim uArch: Shader 14 bind to kernel 1 '_Z12calc_fractaliiffPh'
GPGPU-Sim uArch: core: 14, cta: 0 initialized @(1,0)
GPGPU-Sim uArch: Shader 0 bind to kernel 1 '_Z12calc_fractaliiffPh'
GPGPU-Sim uArch: core:  0, cta: 0 initialized @(1,0)
GPGPU-Sim uArch: core:  1, cta: 1 initialized @(2,0)
GPGPU-Sim uArch: core:  2, cta: 1 initialized @(2,0)
GPGPU-Sim uArch: core:  3, cta: 1 initialized @(2,0)
GPGPU-Sim uArch: core:  4, cta: 1 initialized @(2,0)
GPGPU-Sim uArch: core:  5, cta: 1 initialized @(2,0)
GPGPU-Sim uArch: core:  6, cta: 1 initialized @(2,0)
GPGPU-Sim uArch: core:  7, cta: 1 initialized @(2,0)
GPGPU-Sim uArch: core:  8, cta: 1 initialized @(2,0)
GPGPU-Sim uArch: core:  9, cta: 1 initialized @(2,0)
GPGPU-Sim uArch: core: 10, cta: 1 initialized @(2,0)
GPGPU-Sim uArch: core: 11, cta: 1 initialized @(2,0)
GPGPU-Sim uArch: core: 12, cta: 1 initialized @(2,0)
GPGPU-Sim uArch: core: 13, cta: 1 initialized @(2,0)
GPGPU-Sim uArch: core: 14, cta: 1 initialized @(2,0)
GPGPU-Sim uArch: core:  0, cta: 1 initialized @(2,0)
GPGPU-Sim uArch: core:  1, cta: 2 initialized @(3,0)
GPGPU-Sim uArch: core:  2, cta: 2 initialized @(3,0)
GPGPU-Sim uArch: core:  3, cta: 2 initialized @(3,0)
GPGPU-Sim uArch: core:  4, cta: 2 initialized @(3,0)
GPGPU-Sim uArch: core:  5, cta: 2 initialized @(3,0)
GPGPU-Sim uArch: core:  6, cta: 2 initialized @(3,0)
GPGPU-Sim uArch: core:  7, cta: 2 initialized @(3,0)
GPGPU-Sim uArch: core:  8, cta: 2 initialized @(3,0)
GPGPU-Sim uArch: core:  9, cta: 2 initialized @(3,0)
GPGPU-Sim uArch: core: 10, cta: 2 initialized @(3,0)
GPGPU-Sim uArch: core: 11, cta: 2 initialized @(3,0)
GPGPU-Sim uArch: core: 12, cta: 2 initialized @(3,0)
GPGPU-Sim uArch: core: 13, cta: 2 initialized @(3,0)
GPGPU-Sim uArch: core: 14, cta: 2 initialized @(3,0)
GPGPU-Sim uArch: core:  0, cta: 2 initialized @(3,0)
GPGPU-Sim uArch: core:  1, cta: 3 initialized @(4,0)
GPGPU-Sim uArch: core:  2, cta: 3 initialized @(4,0)
GPGPU-Sim uArch: core:  3, cta: 3 initialized @(4,0)
GPGPU-Sim uArch: core:  4, cta: 3 initialized @(4,0)
GPGPU-Sim uArch: core:  5, cta: 3 initialized @(4,0)
GPGPU-Sim uArch: core:  6, cta: 3 initialized @(4,0)
GPGPU-Sim uArch: core:  7, cta: 3 initialized @(4,0)
GPGPU-Sim uArch: core:  8, cta: 3 initialized @(4,0)
GPGPU-Sim uArch: core:  9, cta: 3 initialized @(4,0)
GPGPU-Sim uArch: core: 10, cta: 3 initialized @(4,0)
GPGPU-Sim uArch: core: 11, cta: 3 initialized @(4,0)
GPGPU-Sim uArch: core: 12, cta: 3 initialized @(4,0)
GPGPU-Sim uArch: core: 13, cta: 3 initialized @(4,0)
GPGPU-Sim uArch: core: 14, cta: 3 initialized @(4,0)
GPGPU-Sim uArch: core:  0, cta: 3 initialized @(4,0)
GPGPU-Sim uArch: core:  1, cta: 4 initialized @(5,0)
GPGPU-Sim uArch: core:  2, cta: 4 initialized @(5,0)
GPGPU-Sim uArch: core:  3, cta: 4 initialized @(5,0)
GPGPU-Sim uArch: core:  4, cta: 4 initialized @(5,0)
GPGPU-Sim uArch: core:  5, cta: 4 initialized @(5,0)
GPGPU-Sim uArch: core:  6, cta: 4 initialized @(5,0)
GPGPU-Sim uArch: core:  7, cta: 4 initialized @(5,0)
GPGPU-Sim uArch: core:  8, cta: 4 initialized @(5,0)
GPGPU-Sim uArch: core:  9, cta: 4 initialized @(5,0)
GPGPU-Sim uArch: core: 10, cta: 4 initialized @(5,0)
GPGPU-Sim uArch: core: 11, cta: 4 initialized @(5,0)
GPGPU-Sim uArch: core: 12, cta: 4 initialized @(5,0)
GPGPU-Sim uArch: core: 13, cta: 4 initialized @(5,0)
GPGPU-Sim uArch: core: 14, cta: 4 initialized @(5,0)
GPGPU-Sim uArch: core:  0, cta: 4 initialized @(5,0)
GPGPU-Sim uArch: core:  1, cta: 5 initialized @(6,0)
GPGPU-Sim uArch: core:  2, cta: 5 initialized @(6,0)
GPGPU-Sim uArch: core:  3, cta: 5 initialized @(6,0)
GPGPU-Sim uArch: core:  4, cta: 5 initialized @(6,0)
GPGPU-Sim uArch: core:  5, cta: 5 initialized @(6,0)
GPGPU-Sim uArch: core:  6, cta: 5 initialized @(6,0)
GPGPU-Sim uArch: core:  7, cta: 5 initialized @(6,0)
GPGPU-Sim uArch: core:  8, cta: 5 initialized @(6,0)
GPGPU-Sim uArch: core:  9, cta: 5 initialized @(6,0)
GPGPU-Sim uArch: core: 10, cta: 5 initialized @(6,0)
GPGPU-Sim uArch: core: 11, cta: 5 initialized @(6,0)
GPGPU-Sim uArch: core: 12, cta: 5 initialized @(6,0)
GPGPU-Sim uArch: core: 13, cta: 5 initialized @(6,0)
GPGPU-Sim uArch: core: 14, cta: 5 initialized @(6,0)
GPGPU-Sim uArch: core:  0, cta: 5 initialized @(6,0)
GPGPU-Sim uArch: core:  1, cta: 6 initialized @(7,0)
GPGPU-Sim uArch: core:  2, cta: 6 initialized @(7,0)
GPGPU-Sim uArch: core:  3, cta: 6 initialized @(7,0)
GPGPU-Sim uArch: core:  4, cta: 6 initialized @(7,0)
GPGPU-Sim uArch: core:  5, cta: 6 initialized @(7,0)
GPGPU-Sim uArch: core:  6, cta: 6 initialized @(7,0)
GPGPU-Sim uArch: core:  7, cta: 6 initialized @(7,0)
GPGPU-Sim uArch: core:  8, cta: 6 initialized @(7,0)
GPGPU-Sim uArch: core:  9, cta: 6 initialized @(7,0)
GPGPU-Sim uArch: core: 10, cta: 6 initialized @(7,0)
GPGPU-Sim uArch: core: 11, cta: 6 initialized @(7,0)
GPGPU-Sim uArch: core: 12, cta: 6 initialized @(7,0)
GPGPU-Sim uArch: core: 13, cta: 6 initialized @(7,0)
GPGPU-Sim uArch: core: 14, cta: 6 initialized @(7,0)
GPGPU-Sim uArch: core:  0, cta: 6 initialized @(7,0)
GPGPU-Sim uArch: core:  1, cta: 7 initialized @(8,0)
GPGPU-Sim uArch: core:  2, cta: 7 initialized @(8,0)
GPGPU-Sim uArch: core:  3, cta: 7 initialized @(8,0)
GPGPU-Sim uArch: core:  4, cta: 7 initialized @(8,0)
GPGPU-Sim uArch: core:  5, cta: 7 initialized @(8,0)
GPGPU-Sim uArch: core:  6, cta: 7 initialized @(8,0)
GPGPU-Sim uArch: core:  7, cta: 7 initialized @(8,0)
GPGPU-Sim uArch: core:  8, cta: 7 initialized @(8,0)
GPGPU-Sim uArch: core:  9, cta: 7 initialized @(8,0)
GPGPU-Sim uArch: core: 10, cta: 7 initialized @(8,0)
GPGPU-Sim uArch: core: 11, cta: 7 initialized @(8,0)
GPGPU-Sim uArch: core: 12, cta: 7 initialized @(8,0)
GPGPU-Sim uArch: core: 13, cta: 7 initialized @(8,0)
GPGPU-Sim uArch: core: 14, cta: 7 initialized @(8,0)
GPGPU-Sim uArch: core:  0, cta: 7 initialized @(8,0)
GPGPU-Sim uArch: cycles simulated: 500  inst.: 30720 (ipc=61.4) sim_rate=30720 (inst/sec) elapsed = 0:0:00:01 / Fri Jan 16 06:12:47 2015
GPGPU-Sim PTX: 100000 instructions simulated : ctaid=(57,0,0) tid=(0,31,0)
GPGPU-Sim PTX: 200000 instructions simulated : ctaid=(88,0,0) tid=(0,31,0)
GPGPU-Sim PTX: 300000 instructions simulated : ctaid=(61,0,0) tid=(0,20,0)
GPGPU-Sim PTX: 400000 instructions simulated : ctaid=(89,0,0) tid=(0,14,0)
GPGPU-Sim PTX: 500000 instructions simulated : ctaid=(78,0,0) tid=(0,10,0)
GPGPU-Sim PTX: 600000 instructions simulated : ctaid=(112,0,0) tid=(0,11,0)
GPGPU-Sim PTX: 700000 instructions simulated : ctaid=(106,0,0) tid=(0,30,0)
GPGPU-Sim uArch: Shader 4 finished CTA #0 (2520,0), 7 CTAs running
GPGPU-Sim uArch: core:  4, cta: 0 initialized @(2521,0)
GPGPU-Sim uArch: Shader 5 finished CTA #0 (2533,0), 7 CTAs running
GPGPU-Sim uArch: core:  5, cta: 0 initialized @(2534,0)
GPGPU-Sim uArch: Shader 7 finished CTA #0 (2534,0), 7 CTAs running
GPGPU-Sim uArch: core:  7, cta: 0 initialized @(2535,0)
GPGPU-Sim uArch: Shader 1 finished CTA #0 (2544,0), 7 CTAs running
GPGPU-Sim uArch: core:  1, cta: 0 initialized @(2545,0)
GPGPU-Sim uArch: Shader 8 finished CTA #0 (2545,0), 7 CTAs running
GPGPU-Sim uArch: core:  8, cta: 0 initialized @(2546,0)
GPGPU-Sim uArch: Shader 10 finished CTA #0 (2548,0), 7 CTAs running
GPGPU-Sim uArch: core: 10, cta: 0 initialized @(2549,0)
GPGPU-Sim uArch: Shader 6 finished CTA #0 (2549,0), 7 CTAs running
GPGPU-Sim uArch: core:  6, cta: 0 initialized @(2550,0)
GPGPU-Sim uArch: Shader 3 finished CTA #0 (2552,0), 7 CTAs running
GPGPU-Sim uArch: core:  3, cta: 0 initialized @(2553,0)
GPGPU-Sim uArch: Shader 9 finished CTA #0 (2554,0), 7 CTAs running
GPGPU-Sim uArch: core:  9, cta: 0 initialized @(2555,0)
GPGPU-Sim uArch: Shader 2 finished CTA #0 (2560,0), 7 CTAs running
GPGPU-Sim uArch: core:  2, cta: 0 initialized @(2561,0)
GPGPU-Sim uArch: Shader 11 finished CTA #0 (2563,0), 7 CTAs running
GPGPU-Sim uArch: core: 11, cta: 0 initialized @(2564,0)
GPGPU-Sim PTX: 800000 instructions simulated : ctaid=(81,0,0) tid=(0,20,0)
GPGPU-Sim uArch: Shader 1 finished CTA #1 (2663,0), 7 CTAs running
GPGPU-Sim uArch: core:  1, cta: 1 initialized @(2664,0)
GPGPU-Sim uArch: Shader 12 finished CTA #0 (2667,0), 7 CTAs running
GPGPU-Sim uArch: core: 12, cta: 0 initialized @(2668,0)
GPGPU-Sim uArch: Shader 13 finished CTA #0 (2673,0), 7 CTAs running
GPGPU-Sim uArch: core: 13, cta: 0 initialized @(2674,0)
GPGPU-Sim uArch: Shader 14 finished CTA #0 (2683,0), 7 CTAs running
GPGPU-Sim uArch: core: 14, cta: 0 initialized @(2684,0)
GPGPU-Sim uArch: Shader 0 finished CTA #0 (2685,0), 7 CTAs running
GPGPU-Sim uArch: core:  0, cta: 0 initialized @(2686,0)
GPGPU-Sim uArch: Shader 2 finished CTA #1 (2692,0), 7 CTAs running
GPGPU-Sim uArch: core:  2, cta: 1 initialized @(2693,0)
GPGPU-Sim PTX: 900000 instructions simulated : ctaid=(79,0,0) tid=(0,21,0)
GPGPU-Sim uArch: cycles simulated: 3000  inst.: 918065 (ipc=306.0) sim_rate=459032 (inst/sec) elapsed = 0:0:00:02 / Fri Jan 16 06:12:49 2015
GPGPU-Sim PTX: 1000000 instructions simulated : ctaid=(103,0,0) tid=(0,21,0)
GPGPU-Sim PTX: 1100000 instructions simulated : ctaid=(83,0,0) tid=(0,0,0)
GPGPU-Sim uArch: Shader 12 finished CTA #4 (3361,0), 7 CTAs running
GPGPU-Sim uArch: core: 12, cta: 4 initialized @(3362,0)
GPGPU-Sim uArch: Shader 13 finished CTA #4 (3365,0), 7 CTAs running
GPGPU-Sim uArch: core: 13, cta: 4 initialized @(3366,0)
GPGPU-Sim uArch: Shader 14 finished CTA #4 (3410,0), 7 CTAs running
GPGPU-Sim uArch: core: 14, cta: 4 initialized @(3411,0)
GPGPU-Sim PTX: 1200000 instructions simulated : ctaid=(34,0,0) tid=(0,25,0)
GPGPU-Sim PTX: 1300000 instructions simulated : ctaid=(62,0,0) tid=(0,13,0)
GPGPU-Sim uArch: Shader 11 finished CTA #4 (3915,0), 7 CTAs running
GPGPU-Sim uArch: core: 11, cta: 4 initialized @(3916,0)
GPGPU-Sim PTX: 1400000 instructions simulated : ctaid=(111,0,0) tid=(0,24,0)
GPGPU-Sim PTX: 1500000 instructions simulated : ctaid=(44,0,0) tid=(0,13,0)
GPGPU-Sim uArch: cycles simulated: 4500  inst.: 1429613 (ipc=317.7) sim_rate=476537 (inst/sec) elapsed = 0:0:00:03 / Fri Jan 16 06:12:50 2015
GPGPU-Sim PTX: 1600000 instructions simulated : ctaid=(131,0,0) tid=(0,15,0)
GPGPU-Sim PTX: 1700000 instructions simulated : ctaid=(98,0,0) tid=(0,9,0)
GPGPU-Sim PTX: 1800000 instructions simulated : ctaid=(90,0,0) tid=(0,6,0)
GPGPU-Sim uArch: Shader 2 finished CTA #3 (5771,0), 7 CTAs running
GPGPU-Sim uArch: core:  2, cta: 3 initialized @(5772,0)
GPGPU-Sim PTX: 1900000 instructions simulated : ctaid=(139,0,0) tid=(0,13,0)
GPGPU-Sim uArch: Shader 5 finished CTA #1 (5887,0), 7 CTAs running
GPGPU-Sim uArch: core:  5, cta: 1 initialized @(5888,0)
GPGPU-Sim uArch: cycles simulated: 6000  inst.: 1815350 (ipc=302.6) sim_rate=453837 (inst/sec) elapsed = 0:0:00:04 / Fri Jan 16 06:12:51 2015
GPGPU-Sim uArch: Shader 12 finished CTA #3 (6066,0), 7 CTAs running
GPGPU-Sim uArch: core: 12, cta: 3 initialized @(6067,0)
GPGPU-Sim uArch: Shader 14 finished CTA #1 (6105,0), 7 CTAs running
GPGPU-Sim uArch: core: 14, cta: 1 initialized @(6106,0)
GPGPU-Sim uArch: Shader 0 finished CTA #3 (6212,0), 7 CTAs running
GPGPU-Sim uArch: core:  0, cta: 3 initialized @(6213,0)
GPGPU-Sim uArch: Shader 3 finished CTA #1 (6249,0), 7 CTAs running
GPGPU-Sim uArch: core:  3, cta: 1 initialized @(6250,0)
GPGPU-Sim uArch: Shader 13 finished CTA #1 (6272,0), 7 CTAs running
GPGPU-Sim uArch: core: 13, cta: 1 initialized @(6273,0)
GPGPU-Sim PTX: 2000000 instructions simulated : ctaid=(120,0,0) tid=(0,12,0)
GPGPU-Sim PTX: 2100000 instructions simulated : ctaid=(37,0,0) tid=(0,18,0)
GPGPU-Sim uArch: Shader 5 finished CTA #4 (7120,0), 7 CTAs running
GPGPU-Sim uArch: core:  5, cta: 4 initialized @(7121,0)
GPGPU-Sim PTX: 2200000 instructions simulated : ctaid=(126,0,0) tid=(0,9,0)
GPGPU-Sim uArch: Shader 11 finished CTA #1 (7372,0), 7 CTAs running
GPGPU-Sim uArch: core: 11, cta: 1 initialized @(7373,0)
GPGPU-Sim uArch: Shader 3 finished CTA #3 (7397,0), 7 CTAs running
GPGPU-Sim uArch: core:  3, cta: 3 initialized @(7398,0)
GPGPU-Sim uArch: cycles simulated: 7500  inst.: 2132013 (ipc=284.3) sim_rate=426402 (inst/sec) elapsed = 0:0:00:05 / Fri Jan 16 06:12:52 2015
GPGPU-Sim uArch: Shader 1 finished CTA #7 (7584,0), 7 CTAs running
GPGPU-Sim uArch: core:  1, cta: 7 initialized @(7585,0)
GPGPU-Sim uArch: Shader 10 finished CTA #3 (7592,0), 7 CTAs running
GPGPU-Sim uArch: core: 10, cta: 3 initialized @(7593,0)
GPGPU-Sim uArch: Shader 12 finished CTA #1 (7645,0), 7 CTAs running
GPGPU-Sim uArch: core: 12, cta: 1 initialized @(7646,0)
GPGPU-Sim PTX: 2300000 instructions simulated : ctaid=(90,0,0) tid=(0,5,0)
GPGPU-Sim uArch: Shader 1 finished CTA #3 (7785,0), 7 CTAs running
GPGPU-Sim uArch: core:  1, cta: 3 initialized @(7786,0)
GPGPU-Sim uArch: Shader 6 finished CTA #1 (7918,0), 7 CTAs running
GPGPU-Sim uArch: core:  6, cta: 1 initialized @(7919,0)
GPGPU-Sim PTX: 2400000 instructions simulated : ctaid=(154,0,0) tid=(0,16,0)
GPGPU-Sim uArch: Shader 14 finished CTA #3 (8358,0), 7 CTAs running
GPGPU-Sim uArch: core: 14, cta: 3 initialized @(8359,0)
GPGPU-Sim PTX: 2500000 instructions simulated : ctaid=(149,0,0) tid=(0,28,0)
GPGPU-Sim uArch: Shader 5 finished CTA #5 (8935,0), 7 CTAs running
GPGPU-Sim uArch: core:  5, cta: 5 initialized @(8936,0)
GPGPU-Sim uArch: Shader 0 finished CTA #2 (8943,0), 7 CTAs running
GPGPU-Sim uArch: core:  0, cta: 2 initialized @(8944,0)
GPGPU-Sim uArch: cycles simulated: 9000  inst.: 2411013 (ipc=267.9) sim_rate=401835 (inst/sec) elapsed = 0:0:00:06 / Fri Jan 16 06:12:53 2015
GPGPU-Sim uArch: Shader 2 finished CTA #5 (9059,0), 7 CTAs running
GPGPU-Sim uArch: core:  2, cta: 5 initialized @(9060,0)
GPGPU-Sim uArch: Shader 1 finished CTA #2 (9169,0), 7 CTAs running
GPGPU-Sim uArch: core:  1, cta: 2 initialized @(9170,0)
GPGPU-Sim PTX: 2600000 instructions simulated : ctaid=(110,0,0) tid=(0,2,0)
GPGPU-Sim uArch: Shader 9 finished CTA #2 (9265,0), 7 CTAs running
GPGPU-Sim uArch: core:  9, cta: 2 initialized @(9266,0)
GPGPU-Sim uArch: Shader 7 finished CTA #3 (9401,0), 7 CTAs running
GPGPU-Sim uArch: core:  7, cta: 3 initialized @(9402,0)
GPGPU-Sim uArch: Shader 11 finished CTA #3 (9531,0), 7 CTAs running
GPGPU-Sim uArch: core: 11, cta: 3 initialized @(9532,0)
GPGPU-Sim uArch: Shader 13 finished CTA #1 (9546,0), 7 CTAs running
GPGPU-Sim uArch: core: 13, cta: 1 initialized @(9547,0)
GPGPU-Sim uArch: Shader 0 finished CTA #6 (9613,0), 7 CTAs running
GPGPU-Sim uArch: core:  0, cta: 6 initialized @(9614,0)
GPGPU-Sim uArch: Shader 4 finished CTA #3 (9755,0), 7 CTAs running
GPGPU-Sim uArch: core:  4, cta: 3 initialized @(9756,0)
GPGPU-Sim PTX: 2700000 instructions simulated : ctaid=(159,0,0) tid=(0,21,0)
GPGPU-Sim uArch: Shader 7 finished CTA #7 (9988,0), 7 CTAs running
GPGPU-Sim uArch: core:  7, cta: 7 initialized @(9989,0)
GPGPU-Sim uArch: Shader 5 finished CTA #4 (10116,0), 7 CTAs running
GPGPU-Sim uArch: core:  5, cta: 4 initialized @(10117,0)
GPGPU-Sim uArch: Shader 8 finished CTA #3 (10228,0), 7 CTAs running
GPGPU-Sim uArch: core:  8, cta: 3 initialized @(10229,0)
GPGPU-Sim uArch: Shader 3 finished CTA #3 (10237,0), 7 CTAs running
GPGPU-Sim uArch: core:  3, cta: 3 initialized @(10238,0)
GPGPU-Sim uArch: Shader 1 finished CTA #7 (10255,0), 7 CTAs running
GPGPU-Sim uArch: core:  1, cta: 7 initialized @(10256,0)
GPGPU-Sim uArch: Shader 11 finished CTA #1 (10281,0), 7 CTAs running
GPGPU-Sim uArch: core: 11, cta: 1 initialized @(10282,0)
GPGPU-Sim uArch: Shader 12 finished CTA #1 (10306,0), 7 CTAs running
GPGPU-Sim uArch: core: 12, cta: 1 initialized @(10307,0)
GPGPU-Sim uArch: Shader 10 finished CTA #3 (10326,0), 7 CTAs running
GPGPU-Sim uArch: core: 10, cta: 3 initialized @(10327,0)
GPGPU-Sim PTX: 2800000 instructions simulated : ctaid=(90,0,0) tid=(0,0,0)
GPGPU-Sim uArch: Shader 5 finished CTA #2 (10404,0), 7 CTAs running
GPGPU-Sim uArch: core:  5, cta: 2 initialized @(10405,0)
GPGPU-Sim uArch: Shader 4 finished CTA #5 (10407,0), 7 CTAs running
GPGPU-Sim uArch: core:  4, cta: 5 initialized @(10408,0)
GPGPU-Sim uArch: Shader 8 finished CTA #1 (10434,0), 7 CTAs running
GPGPU-Sim uArch: core:  8, cta: 1 initialized @(10435,0)
GPGPU-Sim uArch: Shader 9 finished CTA #1 (10491,0), 7 CTAs running
GPGPU-Sim uArch: core:  9, cta: 1 initialized @(10492,0)
GPGPU-Sim uArch: cycles simulated: 10500  inst.: 2656639 (ipc=253.0) sim_rate=379519 (inst/sec) elapsed = 0:0:00:07 / Fri Jan 16 06:12:54 2015
GPGPU-Sim uArch: Shader 1 finished CTA #3 (10547,0), 7 CTAs running
GPGPU-Sim uArch: core:  1, cta: 3 initialized @(10548,0)
GPGPU-Sim uArch: Shader 6 finished CTA #1 (10719,0), 7 CTAs running
GPGPU-Sim uArch: core:  6, cta: 1 initialized @(10720,0)
GPGPU-Sim uArch: Shader 13 finished CTA #2 (10800,0), 7 CTAs running
GPGPU-Sim uArch: core: 13, cta: 2 initialized @(10801,0)
GPGPU-Sim uArch: Shader 8 finished CTA #4 (10808,0), 7 CTAs running
GPGPU-Sim uArch: core:  8, cta: 4 initialized @(10809,0)
GPGPU-Sim uArch: Shader 3 finished CTA #2 (10882,0), 7 CTAs running
GPGPU-Sim uArch: core:  3, cta: 2 initialized @(10883,0)
GPGPU-Sim PTX: 2900000 instructions simulated : ctaid=(168,0,0) tid=(0,11,0)
GPGPU-Sim uArch: Shader 10 finished CTA #1 (10973,0), 7 CTAs running
GPGPU-Sim uArch: core: 10, cta: 1 initialized @(10974,0)
GPGPU-Sim uArch: Shader 14 finished CTA #3 (11064,0), 7 CTAs running
GPGPU-Sim uArch: core: 14, cta: 3 initialized @(11065,0)
GPGPU-Sim uArch: Shader 7 finished CTA #4 (11112,0), 7 CTAs running
GPGPU-Sim uArch: core:  7, cta: 4 initialized @(11113,0)
GPGPU-Sim uArch: Shader 5 finished CTA #7 (11378,0), 7 CTAs running
GPGPU-Sim uArch: core:  5, cta: 7 initialized @(11379,0)
GPGPU-Sim PTX: 3000000 instructions simulated : ctaid=(163,0,0) tid=(0,19,0)
GPGPU-Sim uArch: Shader 3 finished CTA #4 (11424,0), 7 CTAs running
GPGPU-Sim uArch: core:  3, cta: 4 initialized @(11425,0)
GPGPU-Sim uArch: Shader 0 finished CTA #2 (11538,0), 7 CTAs running
GPGPU-Sim uArch: core:  0, cta: 2 initialized @(11539,0)
GPGPU-Sim uArch: Shader 13 finished CTA #3 (11566,0), 7 CTAs running
GPGPU-Sim uArch: core: 13, cta: 3 initialized @(11567,0)
GPGPU-Sim uArch: Shader 5 finished CTA #5 (11583,0), 7 CTAs running
GPGPU-Sim uArch: core:  5, cta: 5 initialized @(11584,0)
GPGPU-Sim uArch: Shader 2 finished CTA #5 (11746,0), 7 CTAs running
GPGPU-Sim uArch: core:  2, cta: 5 initialized @(11747,0)
GPGPU-Sim uArch: Shader 0 finished CTA #4 (11832,0), 7 CTAs running
GPGPU-Sim uArch: core:  0, cta: 4 initialized @(11833,0)
GPGPU-Sim uArch: Shader 1 finished CTA #2 (11841,0), 7 CTAs running
GPGPU-Sim uArch: core:  1, cta: 2 initialized @(11842,0)
GPGPU-Sim PTX: 3100000 instructions simulated : ctaid=(182,0,0) tid=(0,28,0)
GPGPU-Sim uArch: Shader 9 finished CTA #2 (11929,0), 7 CTAs running
GPGPU-Sim uArch: core:  9, cta: 2 initialized @(11930,0)
GPGPU-Sim uArch: Shader 7 finished CTA #3 (11974,0), 7 CTAs running
GPGPU-Sim uArch: core:  7, cta: 3 initialized @(11975,0)
GPGPU-Sim uArch: cycles simulated: 12000  inst.: 2941388 (ipc=245.1) sim_rate=367673 (inst/sec) elapsed = 0:0:00:08 / Fri Jan 16 06:12:55 2015
GPGPU-Sim uArch: Shader 0 finished CTA #6 (12107,0), 7 CTAs running
GPGPU-Sim uArch: core:  0, cta: 6 initialized @(12108,0)
GPGPU-Sim uArch: Shader 1 finished CTA #6 (12115,0), 7 CTAs running
GPGPU-Sim uArch: core:  1, cta: 6 initialized @(12116,0)
GPGPU-Sim uArch: Shader 13 finished CTA #5 (12128,0), 7 CTAs running
GPGPU-Sim uArch: core: 13, cta: 5 initialized @(12129,0)
GPGPU-Sim uArch: Shader 9 finished CTA #5 (12132,0), 7 CTAs running
GPGPU-Sim uArch: core:  9, cta: 5 initialized @(12133,0)
GPGPU-Sim uArch: Shader 11 finished CTA #3 (12158,0), 7 CTAs running
GPGPU-Sim uArch: core: 11, cta: 3 initialized @(12159,0)
GPGPU-Sim uArch: Shader 12 finished CTA #2 (12161,0), 7 CTAs running
GPGPU-Sim uArch: core: 12, cta: 2 initialized @(12162,0)
GPGPU-Sim uArch: Shader 13 finished CTA #1 (12225,0), 7 CTAs running
GPGPU-Sim uArch: core: 13, cta: 1 initialized @(12226,0)
GPGPU-Sim uArch: Shader 4 finished CTA #3 (12236,0), 7 CTAs running
GPGPU-Sim uArch: core:  4, cta: 3 initialized @(12237,0)
GPGPU-Sim PTX: 3200000 instructions simulated : ctaid=(175,0,0) tid=(0,19,0)
GPGPU-Sim uArch: Shader 4 finished CTA #4 (12348,0), 7 CTAs running
GPGPU-Sim uArch: core:  4, cta: 4 initialized @(12349,0)
GPGPU-Sim uArch: Shader 7 finished CTA #6 (12525,0), 7 CTAs running
GPGPU-Sim uArch: core:  7, cta: 6 initialized @(12526,0)
GPGPU-Sim uArch: Shader 4 finished CTA #7 (12532,0), 7 CTAs running
GPGPU-Sim uArch: core:  4, cta: 7 initialized @(12533,0)
GPGPU-Sim uArch: Shader 5 finished CTA #4 (12539,0), 7 CTAs running
GPGPU-Sim uArch: core:  5, cta: 4 initialized @(12540,0)
GPGPU-Sim uArch: Shader 10 finished CTA #2 (12544,0), 7 CTAs running
GPGPU-Sim uArch: core: 10, cta: 2 initialized @(12545,0)
GPGPU-Sim uArch: Shader 7 finished CTA #7 (12621,0), 7 CTAs running
GPGPU-Sim uArch: core:  7, cta: 7 initialized @(12622,0)
GPGPU-Sim uArch: Shader 1 finished CTA #7 (12723,0), 7 CTAs running
GPGPU-Sim uArch: core:  1, cta: 7 initialized @(12724,0)
GPGPU-Sim uArch: Shader 8 finished CTA #3 (12744,0), 7 CTAs running
GPGPU-Sim uArch: core:  8, cta: 3 initialized @(12745,0)
GPGPU-Sim PTX: 3300000 instructions simulated : ctaid=(183,0,0) tid=(0,13,0)
GPGPU-Sim uArch: Shader 10 finished CTA #3 (12814,0), 7 CTAs running
GPGPU-Sim uArch: core: 10, cta: 3 initialized @(12815,0)
GPGPU-Sim uArch: Shader 6 finished CTA #5 (12819,0), 7 CTAs running
GPGPU-Sim uArch: core:  6, cta: 5 initialized @(12820,0)
GPGPU-Sim uArch: Shader 11 finished CTA #1 (12829,0), 7 CTAs running
GPGPU-Sim uArch: core: 11, cta: 1 initialized @(12830,0)
GPGPU-Sim uArch: Shader 3 finished CTA #3 (12842,0), 7 CTAs running
GPGPU-Sim uArch: core:  3, cta: 3 initialized @(12843,0)
GPGPU-Sim uArch: Shader 12 finished CTA #1 (12867,0), 7 CTAs running
GPGPU-Sim uArch: core: 12, cta: 1 initialized @(12868,0)
GPGPU-Sim uArch: Shader 4 finished CTA #5 (12918,0), 7 CTAs running
GPGPU-Sim uArch: core:  4, cta: 5 initialized @(12919,0)
GPGPU-Sim uArch: Shader 14 finished CTA #2 (12920,0), 7 CTAs running
GPGPU-Sim uArch: core: 14, cta: 2 initialized @(12921,0)
GPGPU-Sim uArch: Shader 5 finished CTA #2 (12950,0), 7 CTAs running
GPGPU-Sim uArch: core:  5, cta: 2 initialized @(12951,0)
GPGPU-Sim uArch: Shader 9 finished CTA #1 (13001,0), 7 CTAs running
GPGPU-Sim uArch: core:  9, cta: 1 initialized @(13002,0)
GPGPU-Sim uArch: Shader 8 finished CTA #1 (13033,0), 7 CTAs running
GPGPU-Sim uArch: core:  8, cta: 1 initialized @(13034,0)
GPGPU-Sim uArch: Shader 1 finished CTA #3 (13103,0), 7 CTAs running
GPGPU-Sim uArch: core:  1, cta: 3 initialized @(13104,0)
GPGPU-Sim uArch: Shader 6 finished CTA #2 (13196,0), 7 CTAs running
GPGPU-Sim uArch: core:  6, cta: 2 initialized @(13197,0)
GPGPU-Sim uArch: Shader 3 finished CTA #2 (13230,0), 7 CTAs running
GPGPU-Sim uArch: core:  3, cta: 2 initialized @(13231,0)
GPGPU-Sim PTX: 3400000 instructions simulated : ctaid=(201,0,0) tid=(0,9,0)
GPGPU-Sim uArch: Shader 8 finished CTA #4 (13279,0), 7 CTAs running
GPGPU-Sim uArch: core:  8, cta: 4 initialized @(13280,0)
GPGPU-Sim uArch: Shader 6 finished CTA #1 (13293,0), 7 CTAs running
GPGPU-Sim uArch: core:  6, cta: 1 initialized @(13294,0)
GPGPU-Sim uArch: Shader 13 finished CTA #2 (13320,0), 7 CTAs running
GPGPU-Sim uArch: core: 13, cta: 2 initialized @(13321,0)
GPGPU-Sim uArch: Shader 10 finished CTA #1 (13407,0), 7 CTAs running
GPGPU-Sim uArch: core: 10, cta: 1 initialized @(13408,0)
GPGPU-Sim uArch: Shader 11 finished CTA #2 (13474,0), 7 CTAs running
GPGPU-Sim uArch: core: 11, cta: 2 initialized @(13475,0)
GPGPU-Sim uArch: cycles simulated: 13500  inst.: 3262424 (ipc=241.7) sim_rate=362491 (inst/sec) elapsed = 0:0:00:09 / Fri Jan 16 06:12:56 2015
GPGPU-Sim uArch: Shader 14 finished CTA #3 (13518,0), 7 CTAs running
GPGPU-Sim uArch: core: 14, cta: 3 initialized @(13519,0)
GPGPU-Sim uArch: Shader 7 finished CTA #4 (13567,0), 7 CTAs running
GPGPU-Sim uArch: core:  7, cta: 4 initialized @(13568,0)
GPGPU-Sim PTX: 3500000 instructions simulated : ctaid=(209,0,0) tid=(0,30,0)
GPGPU-Sim uArch: Shader 3 finished CTA #4 (13797,0), 7 CTAs running
GPGPU-Sim uArch: core:  3, cta: 4 initialized @(13798,0)
GPGPU-Sim uArch: Shader 5 finished CTA #7 (13845,0), 7 CTAs running
GPGPU-Sim uArch: core:  5, cta: 7 initialized @(13846,0)
GPGPU-Sim uArch: Shader 0 finished CTA #2 (13872,0), 7 CTAs running
GPGPU-Sim uArch: core:  0, cta: 2 initialized @(13873,0)
GPGPU-Sim uArch: Shader 8 finished CTA #6 (13928,0), 7 CTAs running
GPGPU-Sim uArch: core:  8, cta: 6 initialized @(13929,0)
GPGPU-Sim uArch: Shader 1 finished CTA #5 (13932,0), 7 CTAs running
GPGPU-Sim uArch: core:  1, cta: 5 initialized @(13933,0)
GPGPU-Sim uArch: Shader 8 finished CTA #0 (14024,0), 7 CTAs running
GPGPU-Sim uArch: core:  8, cta: 0 initialized @(14025,0)
GPGPU-Sim PTX: 3600000 instructions simulated : ctaid=(205,0,0) tid=(0,7,0)
GPGPU-Sim uArch: Shader 5 finished CTA #5 (14042,0), 7 CTAs running
GPGPU-Sim uArch: core:  5, cta: 5 initialized @(14043,0)
GPGPU-Sim uArch: Shader 13 finished CTA #3 (14063,0), 7 CTAs running
GPGPU-Sim uArch: core: 13, cta: 3 initialized @(14064,0)
GPGPU-Sim uArch: Shader 2 finished CTA #7 (14086,0), 7 CTAs running
GPGPU-Sim uArch: core:  2, cta: 7 initialized @(14087,0)
GPGPU-Sim uArch: Shader 2 finished CTA #5 (14196,0), 7 CTAs running
GPGPU-Sim uArch: core:  2, cta: 5 initialized @(14197,0)
GPGPU-Sim uArch: Shader 1 finished CTA #2 (14214,0), 7 CTAs running
GPGPU-Sim uArch: core:  1, cta: 2 initialized @(14215,0)
GPGPU-Sim uArch: Shader 0 finished CTA #4 (14234,0), 7 CTAs running
GPGPU-Sim uArch: core:  0, cta: 4 initialized @(14235,0)
GPGPU-Sim uArch: Shader 3 finished CTA #5 (14264,0), 7 CTAs running
GPGPU-Sim uArch: core:  3, cta: 5 initialized @(14265,0)
GPGPU-Sim uArch: Shader 9 finished CTA #2 (14402,0), 7 CTAs running
GPGPU-Sim uArch: core:  9, cta: 2 initialized @(14403,0)
GPGPU-Sim uArch: Shader 1 finished CTA #0 (14404,0), 7 CTAs running
GPGPU-Sim uArch: core:  1, cta: 0 initialized @(14405,0)
GPGPU-Sim PTX: 3700000 instructions simulated : ctaid=(242,0,0) tid=(0,29,0)
GPGPU-Sim uArch: Shader 7 finished CTA #3 (14470,0), 7 CTAs running
GPGPU-Sim uArch: core:  7, cta: 3 initialized @(14471,0)
GPGPU-Sim uArch: Shader 4 finished CTA #3 (14496,0), 7 CTAs running
GPGPU-Sim uArch: core:  4, cta: 3 initialized @(14497,0)
GPGPU-Sim uArch: Shader 9 finished CTA #5 (14526,0), 7 CTAs running
GPGPU-Sim uArch: core:  9, cta: 5 initialized @(14527,0)
GPGPU-Sim uArch: Shader 13 finished CTA #5 (14536,0), 7 CTAs running
GPGPU-Sim uArch: core: 13, cta: 5 initialized @(14537,0)
GPGPU-Sim uArch: Shader 0 finished CTA #6 (14539,0), 7 CTAs running
GPGPU-Sim uArch: core:  0, cta: 6 initialized @(14540,0)
GPGPU-Sim uArch: Shader 11 finished CTA #3 (14552,0), 7 CTAs running
GPGPU-Sim uArch: core: 11, cta: 3 initialized @(14553,0)
GPGPU-Sim uArch: Shader 1 finished CTA #6 (14605,0), 7 CTAs running
GPGPU-Sim uArch: core:  1, cta: 6 initialized @(14606,0)
GPGPU-Sim uArch: Shader 12 finished CTA #2 (14621,0), 7 CTAs running
GPGPU-Sim uArch: core: 12, cta: 2 initialized @(14622,0)
GPGPU-Sim uArch: Shader 4 finished CTA #4 (14722,0), 7 CTAs running
GPGPU-Sim uArch: core:  4, cta: 4 initialized @(14723,0)
GPGPU-Sim uArch: Shader 13 finished CTA #1 (14729,0), 7 CTAs running
GPGPU-Sim uArch: core: 13, cta: 1 initialized @(14730,0)
GPGPU-Sim uArch: Shader 12 finished CTA #6 (14733,0), 7 CTAs running
GPGPU-Sim uArch: core: 12, cta: 6 initialized @(14734,0)
GPGPU-Sim uArch: Shader 7 finished CTA #6 (14774,0), 7 CTAs running
GPGPU-Sim uArch: core:  7, cta: 6 initialized @(14775,0)
GPGPU-Sim uArch: Shader 5 finished CTA #4 (14817,0), 7 CTAs running
GPGPU-Sim uArch: core:  5, cta: 4 initialized @(14818,0)
GPGPU-Sim PTX: 3800000 instructions simulated : ctaid=(143,0,0) tid=(0,24,0)
GPGPU-Sim uArch: Shader 13 finished CTA #4 (14843,0), 7 CTAs running
GPGPU-Sim uArch: core: 13, cta: 4 initialized @(14844,0)
GPGPU-Sim uArch: Shader 4 finished CTA #7 (14912,0), 7 CTAs running
GPGPU-Sim uArch: core:  4, cta: 7 initialized @(14913,0)
GPGPU-Sim uArch: Shader 10 finished CTA #2 (14957,0), 7 CTAs running
GPGPU-Sim uArch: core: 10, cta: 2 initialized @(14958,0)
GPGPU-Sim uArch: Shader 7 finished CTA #7 (14981,0), 7 CTAs running
GPGPU-Sim uArch: core:  7, cta: 7 initialized @(14982,0)
GPGPU-Sim uArch: cycles simulated: 15000  inst.: 3622257 (ipc=241.5) sim_rate=362225 (inst/sec) elapsed = 0:0:00:10 / Fri Jan 16 06:12:57 2015
GPGPU-Sim uArch: Shader 8 finished CTA #3 (15084,0), 7 CTAs running
GPGPU-Sim uArch: core:  8, cta: 3 initialized @(15085,0)
GPGPU-Sim uArch: Shader 1 finished CTA #7 (15091,0), 7 CTAs running
GPGPU-Sim uArch: core:  1, cta: 7 initialized @(15092,0)
GPGPU-Sim uArch: Shader 6 finished CTA #5 (15109,0), 7 CTAs running
GPGPU-Sim uArch: core:  6, cta: 5 initialized @(15110,0)
GPGPU-Sim uArch: Shader 11 finished CTA #1 (15124,0), 7 CTAs running
GPGPU-Sim uArch: core: 11, cta: 1 initialized @(15125,0)
GPGPU-Sim uArch: Shader 10 finished CTA #3 (15142,0), 7 CTAs running
GPGPU-Sim uArch: core: 10, cta: 3 initialized @(15143,0)
GPGPU-Sim uArch: Shader 3 finished CTA #3 (15217,0), 7 CTAs running
GPGPU-Sim uArch: core:  3, cta: 3 initialized @(15218,0)
GPGPU-Sim PTX: 3900000 instructions simulated : ctaid=(14,1,0) tid=(0,13,0)
GPGPU-Sim uArch: Shader 12 finished CTA #1 (15229,0), 7 CTAs running
GPGPU-Sim uArch: core: 12, cta: 1 initialized @(15230,0)
GPGPU-Sim uArch: Shader 4 finished CTA #5 (15292,0), 7 CTAs running
GPGPU-Sim uArch: core:  4, cta: 5 initialized @(15293,0)
GPGPU-Sim uArch: Shader 5 finished CTA #2 (15307,0), 7 CTAs running
GPGPU-Sim uArch: core:  5, cta: 2 initialized @(15308,0)
GPGPU-Sim uArch: Shader 14 finished CTA #2 (15337,0), 7 CTAs running
GPGPU-Sim uArch: core: 14, cta: 2 initialized @(15338,0)
GPGPU-Sim uArch: Shader 9 finished CTA #1 (15361,0), 7 CTAs running
GPGPU-Sim uArch: core:  9, cta: 1 initialized @(15362,0)
GPGPU-Sim uArch: Shader 1 finished CTA #3 (15377,0), 7 CTAs running
GPGPU-Sim uArch: core:  1, cta: 3 initialized @(15378,0)
GPGPU-Sim uArch: Shader 8 finished CTA #1 (15393,0), 7 CTAs running
GPGPU-Sim uArch: core:  8, cta: 1 initialized @(15394,0)
GPGPU-Sim uArch: Shader 4 finished CTA #2 (15399,0), 7 CTAs running
GPGPU-Sim uArch: core:  4, cta: 2 initialized @(15400,0)
GPGPU-Sim uArch: Shader 12 finished CTA #5 (15415,0), 7 CTAs running
GPGPU-Sim uArch: core: 12, cta: 5 initialized @(15416,0)
GPGPU-Sim uArch: Shader 11 finished CTA #5 (15492,0), 7 CTAs running
GPGPU-Sim uArch: core: 11, cta: 5 initialized @(15493,0)
GPGPU-Sim uArch: Shader 6 finished CTA #2 (15501,0), 7 CTAs running
GPGPU-Sim uArch: core:  6, cta: 2 initialized @(15502,0)
GPGPU-Sim uArch: Shader 3 finished CTA #2 (15517,0), 7 CTAs running
GPGPU-Sim uArch: core:  3, cta: 2 initialized @(15518,0)
GPGPU-Sim uArch: Shader 8 finished CTA #4 (15584,0), 7 CTAs running
GPGPU-Sim uArch: core:  8, cta: 4 initialized @(15585,0)
GPGPU-Sim PTX: 4000000 instructions simulated : ctaid=(99,0,0) tid=(0,20,0)
GPGPU-Sim uArch: Shader 13 finished CTA #2 (15606,0), 7 CTAs running
GPGPU-Sim uArch: core: 13, cta: 2 initialized @(15607,0)
GPGPU-Sim uArch: Shader 6 finished CTA #1 (15706,0), 7 CTAs running
GPGPU-Sim uArch: core:  6, cta: 1 initialized @(15707,0)
GPGPU-Sim uArch: Shader 7 finished CTA #5 (15721,0), 7 CTAs running
GPGPU-Sim uArch: core:  7, cta: 5 initialized @(15722,0)
GPGPU-Sim uArch: Shader 10 finished CTA #1 (15728,0), 7 CTAs running
GPGPU-Sim uArch: core: 10, cta: 1 initialized @(15729,0)
GPGPU-Sim uArch: Shader 12 finished CTA #4 (15791,0), 7 CTAs running
GPGPU-Sim uArch: core: 12, cta: 4 initialized @(15792,0)
GPGPU-Sim uArch: Shader 11 finished CTA #2 (15814,0), 7 CTAs running
GPGPU-Sim uArch: core: 11, cta: 2 initialized @(15815,0)
GPGPU-Sim uArch: Shader 14 finished CTA #3 (15845,0), 7 CTAs running
GPGPU-Sim uArch: core: 14, cta: 3 initialized @(15846,0)
GPGPU-Sim uArch: Shader 11 finished CTA #6 (15909,0), 7 CTAs running
GPGPU-Sim uArch: core: 11, cta: 6 initialized @(15910,0)
GPGPU-Sim PTX: 4100000 instructions simulated : ctaid=(245,0,0) tid=(0,31,0)
GPGPU-Sim uArch: cycles simulated: 16000  inst.: 3867399 (ipc=241.7) sim_rate=351581 (inst/sec) elapsed = 0:0:00:11 / Fri Jan 16 06:12:58 2015
GPGPU-Sim uArch: Shader 7 finished CTA #4 (16013,0), 7 CTAs running
GPGPU-Sim uArch: core:  7, cta: 4 initialized @(16014,0)
GPGPU-Sim uArch: Shader 3 finished CTA #7 (16061,0), 7 CTAs running
GPGPU-Sim uArch: core:  3, cta: 7 initialized @(16062,0)
GPGPU-Sim uArch: Shader 4 finished CTA #4 (16092,0), 7 CTAs running
GPGPU-Sim uArch: core:  4, cta: 4 initialized @(16093,0)
GPGPU-Sim uArch: Shader 1 finished CTA #4 (16110,0), 7 CTAs running
GPGPU-Sim uArch: core:  1, cta: 4 initialized @(16111,0)
GPGPU-Sim uArch: Shader 13 finished CTA #1 (16113,0), 7 CTAs running
GPGPU-Sim uArch: core: 13, cta: 1 initialized @(16114,0)
GPGPU-Sim uArch: Shader 0 finished CTA #2 (16135,0), 7 CTAs running
GPGPU-Sim uArch: core:  0, cta: 2 initialized @(16136,0)
GPGPU-Sim uArch: Shader 3 finished CTA #4 (16156,0), 7 CTAs running
GPGPU-Sim uArch: core:  3, cta: 4 initialized @(16157,0)
GPGPU-Sim uArch: Shader 8 finished CTA #6 (16160,0), 7 CTAs running
GPGPU-Sim uArch: core:  8, cta: 6 initialized @(16161,0)
GPGPU-Sim uArch: Shader 5 finished CTA #7 (16174,0), 7 CTAs running
GPGPU-Sim uArch: core:  5, cta: 7 initialized @(16175,0)
GPGPU-Sim uArch: Shader 1 finished CTA #5 (16234,0), 7 CTAs running
GPGPU-Sim uArch: core:  1, cta: 5 initialized @(16235,0)
GPGPU-Sim uArch: Shader 12 finished CTA #6 (16276,0), 7 CTAs running
GPGPU-Sim uArch: core: 12, cta: 6 initialized @(16277,0)
GPGPU-Sim uArch: Shader 2 finished CTA #1 (16286,0), 7 CTAs running
GPGPU-Sim uArch: core:  2, cta: 1 initialized @(16287,0)
GPGPU-Sim uArch: Shader 8 finished CTA #0 (16351,0), 7 CTAs running
GPGPU-Sim uArch: core:  8, cta: 0 initialized @(16352,0)
GPGPU-Sim PTX: 4200000 instructions simulated : ctaid=(42,1,0) tid=(0,11,0)
GPGPU-Sim uArch: Shader 13 finished CTA #3 (16377,0), 7 CTAs running
GPGPU-Sim uArch: core: 13, cta: 3 initialized @(16378,0)
GPGPU-Sim uArch: Shader 5 finished CTA #5 (16383,0), 7 CTAs running
GPGPU-Sim uArch: core:  5, cta: 5 initialized @(16384,0)
GPGPU-Sim uArch: Shader 2 finished CTA #7 (16390,0), 7 CTAs running
GPGPU-Sim uArch: core:  2, cta: 7 initialized @(16391,0)
GPGPU-Sim uArch: Shader 14 finished CTA #6 (16470,0), 7 CTAs running
GPGPU-Sim uArch: core: 14, cta: 6 initialized @(16471,0)
GPGPU-Sim uArch: Shader 1 finished CTA #2 (16516,0), 7 CTAs running
GPGPU-Sim uArch: core:  1, cta: 2 initialized @(16517,0)
GPGPU-Sim uArch: Shader 2 finished CTA #5 (16573,0), 7 CTAs running
GPGPU-Sim uArch: core:  2, cta: 5 initialized @(16574,0)
GPGPU-Sim uArch: Shader 0 finished CTA #0 (16582,0), 7 CTAs running
GPGPU-Sim uArch: core:  0, cta: 0 initialized @(16583,0)
GPGPU-Sim uArch: Shader 0 finished CTA #4 (16679,0), 7 CTAs running
GPGPU-Sim uArch: core:  0, cta: 4 initialized @(16680,0)
GPGPU-Sim uArch: Shader 3 finished CTA #5 (16717,0), 7 CTAs running
GPGPU-Sim uArch: core:  3, cta: 5 initialized @(16718,0)
GPGPU-Sim PTX: 4300000 instructions simulated : ctaid=(38,1,0) tid=(0,8,0)
GPGPU-Sim uArch: Shader 13 finished CTA #6 (16745,0), 7 CTAs running
GPGPU-Sim uArch: core: 13, cta: 6 initialized @(16746,0)
GPGPU-Sim uArch: Shader 1 finished CTA #0 (16795,0), 7 CTAs running
GPGPU-Sim uArch: core:  1, cta: 0 initialized @(16796,0)
GPGPU-Sim uArch: Shader 13 finished CTA #5 (16855,0), 7 CTAs running
GPGPU-Sim uArch: core: 13, cta: 5 initialized @(16856,0)
GPGPU-Sim uArch: Shader 7 finished CTA #3 (16863,0), 7 CTAs running
GPGPU-Sim uArch: core:  7, cta: 3 initialized @(16864,0)
GPGPU-Sim uArch: Shader 9 finished CTA #7 (16876,0), 7 CTAs running
GPGPU-Sim uArch: core:  9, cta: 7 initialized @(16877,0)
GPGPU-Sim uArch: Shader 4 finished CTA #3 (16921,0), 7 CTAs running
GPGPU-Sim uArch: core:  4, cta: 3 initialized @(16922,0)
GPGPU-Sim uArch: Shader 9 finished CTA #2 (16972,0), 7 CTAs running
GPGPU-Sim uArch: core:  9, cta: 2 initialized @(16973,0)
GPGPU-Sim uArch: Shader 5 finished CTA #3 (17037,0), 7 CTAs running
GPGPU-Sim uArch: core:  5, cta: 3 initialized @(17038,0)
GPGPU-Sim uArch: Shader 12 finished CTA #2 (17038,0), 7 CTAs running
GPGPU-Sim uArch: core: 12, cta: 2 initialized @(17039,0)
GPGPU-Sim uArch: Shader 11 finished CTA #3 (17057,0), 7 CTAs running
GPGPU-Sim uArch: core: 11, cta: 3 initialized @(17058,0)
GPGPU-Sim uArch: Shader 9 finished CTA #5 (17069,0), 7 CTAs running
GPGPU-Sim uArch: core:  9, cta: 5 initialized @(17070,0)
GPGPU-Sim PTX: 4400000 instructions simulated : ctaid=(68,1,0) tid=(0,14,0)
GPGPU-Sim uArch: Shader 0 finished CTA #6 (17130,0), 7 CTAs running
GPGPU-Sim uArch: core:  0, cta: 6 initialized @(17131,0)
GPGPU-Sim uArch: Shader 1 finished CTA #6 (17156,0), 7 CTAs running
GPGPU-Sim uArch: core:  1, cta: 6 initialized @(17157,0)
GPGPU-Sim uArch: Shader 11 finished CTA #4 (17162,0), 7 CTAs running
GPGPU-Sim uArch: core: 11, cta: 4 initialized @(17163,0)
GPGPU-Sim uArch: Shader 9 finished CTA #4 (17168,0), 7 CTAs running
GPGPU-Sim uArch: core:  9, cta: 4 initialized @(17169,0)
GPGPU-Sim PTX: 4500000 instructions simulated : ctaid=(34,1,0) tid=(0,30,0)
GPGPU-Sim uArch: Shader 14 finished CTA #5 (17398,0), 7 CTAs running
GPGPU-Sim uArch: core: 14, cta: 5 initialized @(17399,0)
GPGPU-Sim uArch: cycles simulated: 17500  inst.: 4278594 (ipc=244.5) sim_rate=356549 (inst/sec) elapsed = 0:0:00:12 / Fri Jan 16 06:12:59 2015
GPGPU-Sim uArch: Shader 2 finished CTA #6 (17520,0), 7 CTAs running
GPGPU-Sim uArch: core:  2, cta: 6 initialized @(17521,0)
GPGPU-Sim uArch: Shader 5 finished CTA #0 (17603,0), 7 CTAs running
GPGPU-Sim uArch: core:  5, cta: 0 initialized @(17604,0)
GPGPU-Sim uArch: Shader 11 finished CTA #0 (17620,0), 7 CTAs running
GPGPU-Sim uArch: core: 11, cta: 0 initialized @(17621,0)
GPGPU-Sim PTX: 4600000 instructions simulated : ctaid=(43,1,0) tid=(0,29,0)
GPGPU-Sim uArch: Shader 12 finished CTA #7 (17881,0), 7 CTAs running
GPGPU-Sim uArch: core: 12, cta: 7 initialized @(17882,0)
GPGPU-Sim uArch: Shader 8 finished CTA #2 (17924,0), 7 CTAs running
GPGPU-Sim uArch: core:  8, cta: 2 initialized @(17925,0)
GPGPU-Sim PTX: 4700000 instructions simulated : ctaid=(60,1,0) tid=(0,27,0)
GPGPU-Sim uArch: Shader 3 finished CTA #1 (18043,0), 7 CTAs running
GPGPU-Sim uArch: core:  3, cta: 1 initialized @(18044,0)
GPGPU-Sim uArch: Shader 6 finished CTA #4 (18082,0), 7 CTAs running
GPGPU-Sim uArch: core:  6, cta: 4 initialized @(18083,0)
GPGPU-Sim PTX: 4800000 instructions simulated : ctaid=(57,1,0) tid=(0,18,0)
GPGPU-Sim uArch: Shader 6 finished CTA #7 (18386,0), 7 CTAs running
GPGPU-Sim uArch: core:  6, cta: 7 initialized @(18387,0)
GPGPU-Sim uArch: Shader 7 finished CTA #0 (18456,0), 7 CTAs running
GPGPU-Sim uArch: core:  7, cta: 0 initialized @(18457,0)
GPGPU-Sim uArch: cycles simulated: 18500  inst.: 4602678 (ipc=248.8) sim_rate=354052 (inst/sec) elapsed = 0:0:00:13 / Fri Jan 16 06:13:00 2015
GPGPU-Sim PTX: 4900000 instructions simulated : ctaid=(49,1,0) tid=(0,3,0)
GPGPU-Sim uArch: Shader 4 finished CTA #6 (18558,0), 7 CTAs running
GPGPU-Sim uArch: core:  4, cta: 6 initialized @(18559,0)
GPGPU-Sim uArch: Shader 6 finished CTA #3 (18758,0), 7 CTAs running
GPGPU-Sim uArch: core:  6, cta: 3 initialized @(18759,0)
GPGPU-Sim uArch: Shader 7 finished CTA #1 (18822,0), 7 CTAs running
GPGPU-Sim uArch: core:  7, cta: 1 initialized @(18823,0)
GPGPU-Sim PTX: 5000000 instructions simulated : ctaid=(14,1,0) tid=(0,29,0)
GPGPU-Sim uArch: Shader 13 finished CTA #7 (18888,0), 7 CTAs running
GPGPU-Sim uArch: core: 13, cta: 7 initialized @(18889,0)
GPGPU-Sim uArch: Shader 6 finished CTA #6 (19032,0), 7 CTAs running
GPGPU-Sim uArch: core:  6, cta: 6 initialized @(19033,0)
GPGPU-Sim uArch: Shader 2 finished CTA #1 (19059,0), 7 CTAs running
GPGPU-Sim uArch: core:  2, cta: 1 initialized @(19060,0)
GPGPU-Sim uArch: Shader 1 finished CTA #2 (19088,0), 7 CTAs running
GPGPU-Sim uArch: core:  1, cta: 2 initialized @(19089,0)
GPGPU-Sim uArch: Shader 5 finished CTA #7 (19098,0), 7 CTAs running
GPGPU-Sim uArch: core:  5, cta: 7 initialized @(19099,0)
GPGPU-Sim uArch: Shader 12 finished CTA #6 (19113,0), 7 CTAs running
GPGPU-Sim uArch: core: 12, cta: 6 initialized @(19114,0)
GPGPU-Sim uArch: Shader 8 finished CTA #6 (19153,0), 7 CTAs running
GPGPU-Sim uArch: core:  8, cta: 6 initialized @(19154,0)
GPGPU-Sim uArch: Shader 2 finished CTA #4 (19164,0), 7 CTAs running
GPGPU-Sim uArch: core:  2, cta: 4 initialized @(19165,0)
GPGPU-Sim uArch: Shader 0 finished CTA #0 (19166,0), 7 CTAs running
GPGPU-Sim uArch: core:  0, cta: 0 initialized @(19167,0)
GPGPU-Sim uArch: Shader 13 finished CTA #3 (19181,0), 7 CTAs running
GPGPU-Sim uArch: core: 13, cta: 3 initialized @(19182,0)
GPGPU-Sim uArch: Shader 5 finished CTA #5 (19194,0), 7 CTAs running
GPGPU-Sim uArch: core:  5, cta: 5 initialized @(19195,0)
GPGPU-Sim PTX: 5100000 instructions simulated : ctaid=(4,1,0) tid=(0,21,0)
GPGPU-Sim uArch: Shader 8 finished CTA #0 (19249,0), 7 CTAs running
GPGPU-Sim uArch: core:  8, cta: 0 initialized @(19250,0)
GPGPU-Sim uArch: Shader 2 finished CTA #7 (19258,0), 7 CTAs running
GPGPU-Sim uArch: core:  2, cta: 7 initialized @(19259,0)
GPGPU-Sim uArch: Shader 1 finished CTA #5 (19300,0), 7 CTAs running
GPGPU-Sim uArch: core:  1, cta: 5 initialized @(19301,0)
GPGPU-Sim uArch: Shader 10 finished CTA #0 (19313,0), 7 CTAs running
GPGPU-Sim uArch: core: 10, cta: 0 initialized @(19314,0)
GPGPU-Sim uArch: Shader 14 finished CTA #6 (19333,0), 7 CTAs running
GPGPU-Sim uArch: core: 14, cta: 6 initialized @(19334,0)
GPGPU-Sim uArch: Shader 0 finished CTA #4 (19356,0), 7 CTAs running
GPGPU-Sim uArch: core:  0, cta: 4 initialized @(19357,0)
GPGPU-Sim uArch: Shader 1 finished CTA #0 (19409,0), 7 CTAs running
GPGPU-Sim uArch: core:  1, cta: 0 initialized @(19410,0)
GPGPU-Sim uArch: Shader 2 finished CTA #5 (19456,0), 7 CTAs running
GPGPU-Sim uArch: core:  2, cta: 5 initialized @(19457,0)
GPGPU-Sim uArch: Shader 9 finished CTA #2 (19472,0), 7 CTAs running
GPGPU-Sim uArch: core:  9, cta: 2 initialized @(19473,0)
GPGPU-Sim uArch: Shader 13 finished CTA #5 (19478,0), 7 CTAs running
GPGPU-Sim uArch: core: 13, cta: 5 initialized @(19479,0)
GPGPU-Sim uArch: Shader 3 finished CTA #5 (19493,0), 7 CTAs running
GPGPU-Sim uArch: core:  3, cta: 5 initialized @(19494,0)
GPGPU-Sim uArch: Shader 7 finished CTA #3 (19524,0), 7 CTAs running
GPGPU-Sim uArch: core:  7, cta: 3 initialized @(19525,0)
GPGPU-Sim uArch: Shader 14 finished CTA #1 (19525,0), 7 CTAs running
GPGPU-Sim uArch: core: 14, cta: 1 initialized @(19526,0)
GPGPU-Sim uArch: Shader 4 finished CTA #1 (19576,0), 7 CTAs running
GPGPU-Sim uArch: Shader 13 finished CTA #6 (19576,0), 7 CTAs running
GPGPU-Sim uArch: core:  4, cta: 1 initialized @(19577,0)
GPGPU-Sim uArch: core: 13, cta: 6 initialized @(19577,0)
GPGPU-Sim uArch: Shader 9 finished CTA #7 (19580,0), 7 CTAs running
GPGPU-Sim uArch: core:  9, cta: 7 initialized @(19581,0)
GPGPU-Sim PTX: 5200000 instructions simulated : ctaid=(30,1,0) tid=(0,7,0)
GPGPU-Sim uArch: Shader 4 finished CTA #3 (19682,0), 7 CTAs running
GPGPU-Sim uArch: core:  4, cta: 3 initialized @(19683,0)
GPGPU-Sim uArch: Shader 11 finished CTA #4 (19684,0), 7 CTAs running
GPGPU-Sim uArch: core: 11, cta: 4 initialized @(19685,0)
GPGPU-Sim uArch: Shader 9 finished CTA #5 (19687,0), 7 CTAs running
GPGPU-Sim uArch: core:  9, cta: 5 initialized @(19688,0)
GPGPU-Sim uArch: Shader 12 finished CTA #2 (19691,0), 7 CTAs running
GPGPU-Sim uArch: core: 12, cta: 2 initialized @(19692,0)
GPGPU-Sim uArch: Shader 0 finished CTA #6 (19743,0), 7 CTAs running
GPGPU-Sim uArch: core:  0, cta: 6 initialized @(19744,0)
GPGPU-Sim uArch: Shader 5 finished CTA #3 (19766,0), 7 CTAs running
GPGPU-Sim uArch: core:  5, cta: 3 initialized @(19767,0)
GPGPU-Sim uArch: Shader 11 finished CTA #3 (19781,0), 7 CTAs running
GPGPU-Sim uArch: core: 11, cta: 3 initialized @(19782,0)
GPGPU-Sim uArch: Shader 1 finished CTA #6 (19784,0), 7 CTAs running
GPGPU-Sim uArch: core:  1, cta: 6 initialized @(19785,0)
GPGPU-Sim uArch: Shader 9 finished CTA #4 (19797,0), 7 CTAs running
GPGPU-Sim uArch: core:  9, cta: 4 initialized @(19798,0)
GPGPU-Sim uArch: Shader 11 finished CTA #7 (19877,0), 7 CTAs running
GPGPU-Sim uArch: core: 11, cta: 7 initialized @(19878,0)
GPGPU-Sim PTX: 5300000 instructions simulated : ctaid=(12,1,0) tid=(0,25,0)
GPGPU-Sim uArch: cycles simulated: 20000  inst.: 5011396 (ipc=250.6) sim_rate=357956 (inst/sec) elapsed = 0:0:00:14 / Fri Jan 16 06:13:01 2015
GPGPU-Sim uArch: Shader 14 finished CTA #5 (20002,0), 7 CTAs running
GPGPU-Sim uArch: core: 14, cta: 5 initialized @(20003,0)
GPGPU-Sim uArch: Shader 8 finished CTA #5 (20177,0), 7 CTAs running
GPGPU-Sim uArch: core:  8, cta: 5 initialized @(20178,0)
GPGPU-Sim uArch: Shader 2 finished CTA #6 (20232,0), 7 CTAs running
GPGPU-Sim uArch: core:  2, cta: 6 initialized @(20233,0)
GPGPU-Sim PTX: 5400000 instructions simulated : ctaid=(92,1,0) tid=(0,11,0)
GPGPU-Sim uArch: Shader 11 finished CTA #0 (20274,0), 7 CTAs running
GPGPU-Sim uArch: core: 11, cta: 0 initialized @(20275,0)
GPGPU-Sim uArch: Shader 5 finished CTA #0 (20463,0), 7 CTAs running
GPGPU-Sim uArch: core:  5, cta: 0 initialized @(20464,0)
GPGPU-Sim uArch: Shader 10 finished CTA #4 (20519,0), 7 CTAs running
GPGPU-Sim uArch: core: 10, cta: 4 initialized @(20520,0)
GPGPU-Sim uArch: Shader 8 finished CTA #2 (20548,0), 7 CTAs running
GPGPU-Sim uArch: core:  8, cta: 2 initialized @(20549,0)
GPGPU-Sim PTX: 5500000 instructions simulated : ctaid=(27,1,0) tid=(0,5,0)
GPGPU-Sim uArch: Shader 12 finished CTA #7 (20608,0), 7 CTAs running
GPGPU-Sim uArch: core: 12, cta: 7 initialized @(20609,0)
GPGPU-Sim uArch: Shader 10 finished CTA #5 (20625,0), 7 CTAs running
GPGPU-Sim uArch: core: 10, cta: 5 initialized @(20626,0)
GPGPU-Sim uArch: Shader 3 finished CTA #1 (20646,0), 7 CTAs running
GPGPU-Sim uArch: core:  3, cta: 1 initialized @(20647,0)
GPGPU-Sim uArch: Shader 6 finished CTA #4 (20666,0), 7 CTAs running
GPGPU-Sim uArch: core:  6, cta: 4 initialized @(20667,0)
GPGPU-Sim uArch: Shader 5 finished CTA #1 (20737,0), 7 CTAs running
GPGPU-Sim uArch: core:  5, cta: 1 initialized @(20738,0)
GPGPU-Sim uArch: Shader 1 finished CTA #1 (20833,0), 7 CTAs running
GPGPU-Sim uArch: core:  1, cta: 1 initialized @(20834,0)
GPGPU-Sim PTX: 5600000 instructions simulated : ctaid=(88,1,0) tid=(0,23,0)
GPGPU-Sim uArch: Shader 6 finished CTA #7 (20991,0), 7 CTAs running
GPGPU-Sim uArch: core:  6, cta: 7 initialized @(20992,0)
GPGPU-Sim uArch: cycles simulated: 21000  inst.: 5309521 (ipc=252.8) sim_rate=353968 (inst/sec) elapsed = 0:0:00:15 / Fri Jan 16 06:13:02 2015
GPGPU-Sim uArch: Shader 7 finished CTA #0 (21134,0), 7 CTAs running
GPGPU-Sim uArch: core:  7, cta: 0 initialized @(21135,0)
GPGPU-Sim PTX: 5700000 instructions simulated : ctaid=(125,1,0) tid=(0,9,0)
GPGPU-Sim uArch: Shader 4 finished CTA #6 (21211,0), 7 CTAs running
GPGPU-Sim uArch: core:  4, cta: 6 initialized @(21212,0)
GPGPU-Sim uArch: Shader 7 finished CTA #6 (21237,0), 7 CTAs running
GPGPU-Sim uArch: core:  7, cta: 6 initialized @(21238,0)
GPGPU-Sim uArch: Shader 6 finished CTA #0 (21264,0), 7 CTAs running
GPGPU-Sim uArch: core:  6, cta: 0 initialized @(21265,0)
GPGPU-Sim uArch: Shader 14 finished CTA #7 (21313,0), 7 CTAs running
GPGPU-Sim uArch: core: 14, cta: 7 initialized @(21314,0)
GPGPU-Sim uArch: Shader 6 finished CTA #3 (21373,0), 7 CTAs running
GPGPU-Sim uArch: core:  6, cta: 3 initialized @(21374,0)
GPGPU-Sim uArch: Shader 7 finished CTA #1 (21442,0), 7 CTAs running
GPGPU-Sim uArch: core:  7, cta: 1 initialized @(21443,0)
GPGPU-Sim PTX: 5800000 instructions simulated : ctaid=(113,1,0) tid=(0,7,0)
GPGPU-Sim uArch: Shader 13 finished CTA #7 (21539,0), 7 CTAs running
GPGPU-Sim uArch: core: 13, cta: 7 initialized @(21540,0)
GPGPU-Sim uArch: Shader 2 finished CTA #1 (21572,0), 7 CTAs running
GPGPU-Sim uArch: core:  2, cta: 1 initialized @(21573,0)
GPGPU-Sim uArch: Shader 9 finished CTA #3 (21635,0), 7 CTAs running
GPGPU-Sim uArch: core:  9, cta: 3 initialized @(21636,0)
GPGPU-Sim uArch: Shader 6 finished CTA #6 (21657,0), 7 CTAs running
GPGPU-Sim uArch: core:  6, cta: 6 initialized @(21658,0)
GPGPU-Sim uArch: Shader 1 finished CTA #2 (21660,0), 7 CTAs running
GPGPU-Sim uArch: core:  1, cta: 2 initialized @(21661,0)
GPGPU-Sim uArch: Shader 5 finished CTA #7 (21664,0), 7 CTAs running
GPGPU-Sim uArch: core:  5, cta: 7 initialized @(21665,0)
GPGPU-Sim uArch: Shader 2 finished CTA #3 (21678,0), 7 CTAs running
GPGPU-Sim uArch: core:  2, cta: 3 initialized @(21679,0)
GPGPU-Sim uArch: Shader 12 finished CTA #6 (21687,0), 7 CTAs running
GPGPU-Sim uArch: core: 12, cta: 6 initialized @(21688,0)
GPGPU-Sim uArch: Shader 8 finished CTA #6 (21702,0), 7 CTAs running
GPGPU-Sim uArch: core:  8, cta: 6 initialized @(21703,0)
GPGPU-Sim uArch: Shader 0 finished CTA #0 (21705,0), 7 CTAs running
GPGPU-Sim uArch: core:  0, cta: 0 initialized @(21706,0)
GPGPU-Sim uArch: Shader 5 finished CTA #5 (21770,0), 7 CTAs running
GPGPU-Sim uArch: core:  5, cta: 5 initialized @(21771,0)
GPGPU-Sim uArch: Shader 2 finished CTA #4 (21792,0), 7 CTAs running
GPGPU-Sim uArch: core:  2, cta: 4 initialized @(21793,0)
GPGPU-Sim uArch: Shader 8 finished CTA #0 (21808,0), 7 CTAs running
GPGPU-Sim uArch: core:  8, cta: 0 initialized @(21809,0)
GPGPU-Sim uArch: Shader 13 finished CTA #3 (21818,0), 7 CTAs running
GPGPU-Sim uArch: core: 13, cta: 3 initialized @(21819,0)
GPGPU-Sim uArch: Shader 0 finished CTA #5 (21825,0), 7 CTAs running
GPGPU-Sim uArch: core:  0, cta: 5 initialized @(21826,0)
GPGPU-Sim PTX: 5900000 instructions simulated : ctaid=(107,1,0) tid=(0,25,0)
GPGPU-Sim uArch: Shader 2 finished CTA #7 (21986,0), 7 CTAs running
GPGPU-Sim uArch: core:  2, cta: 7 initialized @(21987,0)
GPGPU-Sim uArch: Shader 10 finished CTA #0 (22026,0), 7 CTAs running
GPGPU-Sim uArch: core: 10, cta: 0 initialized @(22027,0)
GPGPU-Sim uArch: Shader 1 finished CTA #5 (22042,0), 7 CTAs running
GPGPU-Sim uArch: core:  1, cta: 5 initialized @(22043,0)
GPGPU-Sim uArch: Shader 14 finished CTA #6 (22087,0), 7 CTAs running
GPGPU-Sim uArch: core: 14, cta: 6 initialized @(22088,0)
GPGPU-Sim uArch: Shader 0 finished CTA #4 (22109,0), 7 CTAs running
GPGPU-Sim uArch: core:  0, cta: 4 initialized @(22110,0)
GPGPU-Sim uArch: Shader 1 finished CTA #0 (22148,0), 7 CTAs running
GPGPU-Sim uArch: core:  1, cta: 0 initialized @(22149,0)
GPGPU-Sim PTX: 6000000 instructions simulated : ctaid=(151,1,0) tid=(0,18,0)
GPGPU-Sim uArch: Shader 9 finished CTA #2 (22237,0), 7 CTAs running
GPGPU-Sim uArch: core:  9, cta: 2 initialized @(22238,0)
GPGPU-Sim uArch: Shader 2 finished CTA #5 (22352,0), 7 CTAs running
GPGPU-Sim uArch: core:  2, cta: 5 initialized @(22353,0)
GPGPU-Sim uArch: Shader 13 finished CTA #5 (22385,0), 7 CTAs running
GPGPU-Sim uArch: core: 13, cta: 5 initialized @(22386,0)
GPGPU-Sim uArch: Shader 3 finished CTA #6 (22430,0), 7 CTAs running
GPGPU-Sim uArch: core:  3, cta: 6 initialized @(22431,0)
GPGPU-Sim uArch: Shader 2 finished CTA #2 (22457,0), 7 CTAs running
GPGPU-Sim uArch: core:  2, cta: 2 initialized @(22458,0)
GPGPU-Sim uArch: Shader 0 finished CTA #3 (22481,0), 7 CTAs running
GPGPU-Sim uArch: core:  0, cta: 3 initialized @(22482,0)
GPGPU-Sim uArch: cycles simulated: 22500  inst.: 5744375 (ipc=255.3) sim_rate=359023 (inst/sec) elapsed = 0:0:00:16 / Fri Jan 16 06:13:03 2015
GPGPU-Sim PTX: 6100000 instructions simulated : ctaid=(144,1,0) tid=(0,3,0)
GPGPU-Sim uArch: Shader 0 finished CTA #7 (22761,0), 7 CTAs running
GPGPU-Sim uArch: core:  0, cta: 7 initialized @(22762,0)
GPGPU-Sim uArch: Shader 4 finished CTA #0 (22799,0), 7 CTAs running
GPGPU-Sim uArch: core:  4, cta: 0 initialized @(22800,0)
GPGPU-Sim PTX: 6200000 instructions simulated : ctaid=(147,1,0) tid=(0,18,0)
GPGPU-Sim PTX: 6300000 instructions simulated : ctaid=(167,1,0) tid=(0,18,0)
GPGPU-Sim uArch: Shader 1 finished CTA #4 (23235,0), 7 CTAs running
GPGPU-Sim uArch: core:  1, cta: 4 initialized @(23236,0)
GPGPU-Sim uArch: Shader 3 finished CTA #0 (23246,0), 7 CTAs running
GPGPU-Sim uArch: core:  3, cta: 0 initialized @(23247,0)
GPGPU-Sim uArch: Shader 11 finished CTA #1 (23343,0), 7 CTAs running
GPGPU-Sim uArch: core: 11, cta: 1 initialized @(23344,0)
GPGPU-Sim PTX: 6400000 instructions simulated : ctaid=(161,1,0) tid=(0,23,0)
GPGPU-Sim uArch: Shader 12 finished CTA #3 (23448,0), 7 CTAs running
GPGPU-Sim uArch: core: 12, cta: 3 initialized @(23449,0)
GPGPU-Sim uArch: cycles simulated: 23500  inst.: 6064622 (ipc=258.1) sim_rate=356742 (inst/sec) elapsed = 0:0:00:17 / Fri Jan 16 06:13:04 2015
GPGPU-Sim uArch: Shader 2 finished CTA #0 (23544,0), 7 CTAs running
GPGPU-Sim uArch: core:  2, cta: 0 initialized @(23545,0)
GPGPU-Sim uArch: Shader 12 finished CTA #1 (23650,0), 7 CTAs running
GPGPU-Sim uArch: core: 12, cta: 1 initialized @(23651,0)
GPGPU-Sim PTX: 6500000 instructions simulated : ctaid=(152,1,0) tid=(0,2,0)
GPGPU-Sim uArch: Shader 14 finished CTA #4 (23677,0), 7 CTAs running
GPGPU-Sim uArch: core: 14, cta: 4 initialized @(23678,0)
GPGPU-Sim PTX: 6600000 instructions simulated : ctaid=(143,1,0) tid=(0,22,0)
GPGPU-Sim uArch: Shader 10 finished CTA #7 (24062,0), 7 CTAs running
GPGPU-Sim uArch: core: 10, cta: 7 initialized @(24063,0)
GPGPU-Sim PTX: 6700000 instructions simulated : ctaid=(160,1,0) tid=(0,8,0)
GPGPU-Sim uArch: Shader 4 finished CTA #5 (24234,0), 7 CTAs running
GPGPU-Sim uArch: core:  4, cta: 5 initialized @(24235,0)
GPGPU-Sim uArch: Shader 7 finished CTA #3 (24244,0), 7 CTAs running
GPGPU-Sim uArch: core:  7, cta: 3 initialized @(24245,0)
GPGPU-Sim uArch: Shader 8 finished CTA #7 (24340,0), 7 CTAs running
GPGPU-Sim uArch: core:  8, cta: 7 initialized @(24341,0)
GPGPU-Sim PTX: 6800000 instructions simulated : ctaid=(134,1,0) tid=(0,19,0)
GPGPU-Sim uArch: Shader 13 finished CTA #6 (24675,0), 7 CTAs running
GPGPU-Sim uArch: core: 13, cta: 6 initialized @(24676,0)
GPGPU-Sim uArch: Shader 2 finished CTA #6 (24731,0), 7 CTAs running
GPGPU-Sim uArch: core:  2, cta: 6 initialized @(24732,0)
GPGPU-Sim uArch: Shader 3 finished CTA #5 (24773,0), 7 CTAs running
GPGPU-Sim uArch: core:  3, cta: 5 initialized @(24774,0)
GPGPU-Sim uArch: Shader 11 finished CTA #0 (24918,0), 7 CTAs running
GPGPU-Sim uArch: core: 11, cta: 0 initialized @(24919,0)
GPGPU-Sim PTX: 6900000 instructions simulated : ctaid=(137,1,0) tid=(0,29,0)
GPGPU-Sim uArch: cycles simulated: 25000  inst.: 6511596 (ipc=260.5) sim_rate=361755 (inst/sec) elapsed = 0:0:00:18 / Fri Jan 16 06:13:05 2015
GPGPU-Sim uArch: Shader 10 finished CTA #4 (25014,0), 7 CTAs running
GPGPU-Sim uArch: core: 10, cta: 4 initialized @(25015,0)
GPGPU-Sim uArch: Shader 8 finished CTA #5 (25043,0), 7 CTAs running
GPGPU-Sim uArch: core:  8, cta: 5 initialized @(25044,0)
GPGPU-Sim uArch: Shader 8 finished CTA #2 (25044,0), 7 CTAs running
GPGPU-Sim uArch: core:  8, cta: 2 initialized @(25045,0)
GPGPU-Sim uArch: Shader 6 finished CTA #4 (25066,0), 7 CTAs running
GPGPU-Sim uArch: core:  6, cta: 4 initialized @(25067,0)
GPGPU-Sim uArch: Shader 5 finished CTA #1 (25076,0), 7 CTAs running
GPGPU-Sim uArch: core:  5, cta: 1 initialized @(25077,0)
GPGPU-Sim uArch: Shader 10 finished CTA #5 (25086,0), 7 CTAs running
GPGPU-Sim uArch: core: 10, cta: 5 initialized @(25087,0)
GPGPU-Sim uArch: Shader 12 finished CTA #7 (25092,0), 7 CTAs running
GPGPU-Sim uArch: core: 12, cta: 7 initialized @(25093,0)
GPGPU-Sim uArch: Shader 14 finished CTA #5 (25132,0), 7 CTAs running
GPGPU-Sim uArch: core: 14, cta: 5 initialized @(25133,0)
GPGPU-Sim uArch: Shader 3 finished CTA #1 (25152,0), 7 CTAs running
GPGPU-Sim uArch: core:  3, cta: 1 initialized @(25153,0)
GPGPU-Sim uArch: Shader 5 finished CTA #0 (25171,0), 7 CTAs running
GPGPU-Sim uArch: core:  5, cta: 0 initialized @(25172,0)
GPGPU-Sim uArch: Shader 1 finished CTA #1 (25360,0), 7 CTAs running
GPGPU-Sim uArch: core:  1, cta: 1 initialized @(25361,0)
GPGPU-Sim PTX: 7000000 instructions simulated : ctaid=(121,1,0) tid=(0,6,0)
GPGPU-Sim uArch: Shader 0 finished CTA #3 (25443,0), 7 CTAs running
GPGPU-Sim uArch: core:  0, cta: 3 initialized @(25444,0)
GPGPU-Sim uArch: Shader 7 finished CTA #2 (25517,0), 7 CTAs running
GPGPU-Sim uArch: core:  7, cta: 2 initialized @(25518,0)
GPGPU-Sim uArch: Shader 6 finished CTA #7 (25523,0), 7 CTAs running
GPGPU-Sim uArch: core:  6, cta: 7 initialized @(25524,0)
GPGPU-Sim uArch: Shader 3 finished CTA #6 (25545,0), 7 CTAs running
GPGPU-Sim uArch: core:  3, cta: 6 initialized @(25546,0)
GPGPU-Sim uArch: Shader 0 finished CTA #1 (25550,0), 7 CTAs running
GPGPU-Sim uArch: core:  0, cta: 1 initialized @(25551,0)
GPGPU-Sim uArch: Shader 2 finished CTA #2 (25557,0), 7 CTAs running
GPGPU-Sim uArch: core:  2, cta: 2 initialized @(25558,0)
GPGPU-Sim uArch: Shader 9 finished CTA #6 (25559,0), 7 CTAs running
GPGPU-Sim uArch: core:  9, cta: 6 initialized @(25560,0)
GPGPU-Sim uArch: Shader 7 finished CTA #0 (25621,0), 7 CTAs running
GPGPU-Sim uArch: core:  7, cta: 0 initialized @(25622,0)
GPGPU-Sim uArch: Shader 4 finished CTA #0 (25631,0), 7 CTAs running
GPGPU-Sim uArch: core:  4, cta: 0 initialized @(25632,0)
GPGPU-Sim uArch: Shader 12 finished CTA #0 (25731,0), 7 CTAs running
GPGPU-Sim uArch: core: 12, cta: 0 initialized @(25732,0)
GPGPU-Sim uArch: Shader 0 finished CTA #7 (25736,0), 7 CTAs running
GPGPU-Sim uArch: core:  0, cta: 7 initialized @(25737,0)
GPGPU-Sim PTX: 7100000 instructions simulated : ctaid=(183,1,0) tid=(0,17,0)
GPGPU-Sim uArch: Shader 13 finished CTA #5 (25794,0), 7 CTAs running
GPGPU-Sim uArch: core: 13, cta: 5 initialized @(25795,0)
GPGPU-Sim uArch: Shader 4 finished CTA #6 (25833,0), 7 CTAs running
GPGPU-Sim uArch: core:  4, cta: 6 initialized @(25834,0)
GPGPU-Sim uArch: Shader 5 finished CTA #6 (25861,0), 7 CTAs running
GPGPU-Sim uArch: core:  5, cta: 6 initialized @(25862,0)
GPGPU-Sim uArch: Shader 10 finished CTA #6 (25886,0), 7 CTAs running
GPGPU-Sim uArch: core: 10, cta: 6 initialized @(25887,0)
GPGPU-Sim uArch: Shader 2 finished CTA #5 (25969,0), 7 CTAs running
GPGPU-Sim uArch: core:  2, cta: 5 initialized @(25970,0)
GPGPU-Sim uArch: cycles simulated: 26000  inst.: 6741098 (ipc=259.3) sim_rate=354794 (inst/sec) elapsed = 0:0:00:19 / Fri Jan 16 06:13:06 2015
GPGPU-Sim uArch: Shader 0 finished CTA #2 (26010,0), 7 CTAs running
GPGPU-Sim uArch: core:  0, cta: 2 initialized @(26011,0)
GPGPU-Sim uArch: Shader 1 finished CTA #4 (26032,0), 7 CTAs running
GPGPU-Sim uArch: core:  1, cta: 4 initialized @(26033,0)
GPGPU-Sim uArch: Shader 14 finished CTA #2 (26079,0), 7 CTAs running
GPGPU-Sim uArch: core: 14, cta: 2 initialized @(26080,0)
GPGPU-Sim uArch: Shader 6 finished CTA #5 (26088,0), 7 CTAs running
GPGPU-Sim uArch: core:  6, cta: 5 initialized @(26089,0)
GPGPU-Sim uArch: Shader 3 finished CTA #0 (26108,0), 7 CTAs running
GPGPU-Sim uArch: core:  3, cta: 0 initialized @(26109,0)
GPGPU-Sim uArch: Shader 12 finished CTA #3 (26111,0), 7 CTAs running
GPGPU-Sim uArch: core: 12, cta: 3 initialized @(26112,0)
GPGPU-Sim uArch: Shader 11 finished CTA #1 (26163,0), 7 CTAs running
GPGPU-Sim uArch: core: 11, cta: 1 initialized @(26164,0)
GPGPU-Sim PTX: 7200000 instructions simulated : ctaid=(210,1,0) tid=(0,13,0)
GPGPU-Sim uArch: Shader 7 finished CTA #6 (26171,0), 7 CTAs running
GPGPU-Sim uArch: core:  7, cta: 6 initialized @(26172,0)
[...]
gpgpu_stall_shd_mem[s_mem][bk_conf] = 0
gpgpu_stall_shd_mem[gl_mem][bk_conf] = 0
gpgpu_stall_shd_mem[gl_mem][coal_stall] = 109447
gpgpu_stall_shd_mem[gl_mem][data_port_stall] = 0
gpgpu_stall_shd_mem[g_mem_ld][mshr_rc] = 0
gpgpu_stall_shd_mem[g_mem_ld][icnt_rc] = 0
gpgpu_stall_shd_mem[g_mem_ld][wb_icnt_rc] = 0
gpgpu_stall_shd_mem[g_mem_ld][wb_rsrv_fail] = 0
gpgpu_stall_shd_mem[g_mem_st][mshr_rc] = 0
gpgpu_stall_shd_mem[g_mem_st][icnt_rc] = 0
gpgpu_stall_shd_mem[g_mem_st][wb_icnt_rc] = 0
gpgpu_stall_shd_mem[g_mem_st][wb_rsrv_fail] = 0
gpgpu_stall_shd_mem[l_mem_ld][mshr_rc] = 0
gpgpu_stall_shd_mem[l_mem_ld][icnt_rc] = 0
gpgpu_stall_shd_mem[l_mem_ld][wb_icnt_rc] = 0
gpgpu_stall_shd_mem[l_mem_ld][wb_rsrv_fail] = 0
gpgpu_stall_shd_mem[l_mem_st][mshr_rc] = 0
gpgpu_stall_shd_mem[l_mem_st][icnt_rc] = 0
gpgpu_stall_shd_mem[l_mem_ld][wb_icnt_rc] = 0
gpgpu_stall_shd_mem[l_mem_ld][wb_rsrv_fail] = 0
gpu_reg_bank_conflict_stalls = 0
Warp Occupancy Distribution:
Stall:55179	W0_Idle:116583	W0_Scoreboard:2353878	W1:895870	W2:438206	W3:301298	W4:194538	W5:144260	W6:116160	W7:102954	W8:87904	W9:79360	W10:71968	W11:65632	W12:57696	W13:51264	W14:44016	W15:44704	W16:38368	W17:31392	W18:30752	W19:31504	W20:33392	W21:27312	W22:26800	W23:25040	W24:26576	W25:26576	W26:24368	W27:23248	W28:20832	W29:20912	W30:17104	W31:21216	W32:1095296
traffic_breakdown_coretomem[CONST_ACC_R] = 120 {8:15,}
traffic_breakdown_coretomem[GLOBAL_ACC_W] = 2621440 {40:65536,}
traffic_breakdown_coretomem[INST_ACC_R] = 480 {8:60,}
traffic_breakdown_memtocore[CONST_ACC_R] = 1080 {72:15,}
traffic_breakdown_memtocore[GLOBAL_ACC_W] = 524288 {8:65536,}
traffic_breakdown_memtocore[INST_ACC_R] = 8160 {136:60,}
maxmrqlatency = 31 
maxdqlatency = 0 
maxmflatency = 524 
averagemflatency = 171 
max_icnt2mem_latency = 392 
max_icnt2sh_latency = 231777 
mrq_lat_table:947 	121 	219 	223 	127 	0 	0 	0 	0 	0 	0 	0 	0 	0 	0 	0 	0 	0 	0 	0 	0 	0 	0 	0 	0 	0 	0 	0 	0 	0 	0 	0 	
dq_lat_table:0 	0 	0 	0 	0 	0 	0 	0 	0 	0 	0 	0 	0 	0 	0 	0 	0 	0 	0 	0 	0 	0 	0 	0 	0 	0 	0 	0 	0 	0 	0 	0 	
mf_lat_table:0 	0 	0 	0 	0 	0 	0 	64158 	1383 	10 	0 	0 	0 	0 	0 	0 	0 	0 	0 	0 	0 	0 	0 	0 	0 	0 	0 	0 	0 	0 	0 	0 	
icnt2mem_lat_table:0 	0 	0 	5856 	15791 	43856 	0 	16 	92 	0 	0 	0 	0 	0 	0 	0 	0 	0 	0 	0 	0 	0 	0 	0 	
icnt2sh_lat_table:0 	0 	0 	2 	13 	0 	0 	0 	0 	0 	0 	672 	480 	4864 	9312 	8864 	17096 	24248 	0 	0 	0 	0 	0 	0 	
mf_lat_pw_table:0 	0 	0 	0 	0 	0 	0 	435 	3 	0 	0 	0 	0 	0 	0 	0 	0 	0 	0 	0 	0 	0 	0 	0 	0 	0 	0 	0 	0 	0 	0 	0 	
maximum concurrent accesses to same row:
dram[0]:         1         0         0         0         0         0         0         0         0         0         0         0         0         0         0         0 
dram[1]:         0         0         0         0         0         0         0         0         0         0         0         0         0         0         0         0 
dram[2]:         0         0         0         0         0         0         0         0         0         0         0         0         0         0         0         0 
dram[3]:         0         0         0         0         0         0         0         0         0         0         0         0         0         0         0         0 
dram[4]:         0         0         0         0         0         0         0         0         0         0         0         0         0         0         0         0 
dram[5]:         0         0         0         0         0         0         0         0         0         0         0         0         0         0         0         0 
maximum service time to same row:
dram[0]:       337         0         0         0      2224      2241     29200     29182         0         0         0         0         0         0         0         0 
dram[1]:      1260         0         0         0      2221      2238     29197     29179         0         0         0         0         0         0         0         0 
dram[2]:         0         0         0         0      2218      2235     29194     29212         0         0         0         0         0         0         0         0 
dram[3]:         0         0         0         0      2215      2232     29191     29209         0         0         0         0         0         0         0         0 
dram[4]:         0         0         0         0      2247      2229     29188     29206         0         0         0         0         0         0         0         0 
dram[5]:         0         0         0         0      2244      2226     29185     29203         0         0         0         0         0         0         0         0 
average row accesses per activate:
dram[0]:  1.000000      -nan      -nan      -nan 35.000000 35.000000 101.000000 95.000000      -nan      -nan      -nan      -nan      -nan      -nan      -nan      -nan 
dram[1]:  2.000000      -nan      -nan      -nan 35.000000 35.000000 101.000000 95.000000      -nan      -nan      -nan      -nan      -nan      -nan      -nan      -nan 
dram[2]:      -nan      -nan      -nan      -nan 35.000000 42.000000 101.000000 100.000000      -nan      -nan      -nan      -nan      -nan      -nan      -nan      -nan 
dram[3]:      -nan      -nan      -nan      -nan 35.000000 42.000000 101.000000 100.000000      -nan      -nan      -nan      -nan      -nan      -nan      -nan      -nan 
dram[4]:      -nan      -nan      -nan      -nan 35.000000 42.000000 95.000000 100.000000      -nan      -nan      -nan      -nan      -nan      -nan      -nan      -nan 
dram[5]:      -nan      -nan      -nan      -nan 35.000000 42.000000 95.000000 100.000000      -nan      -nan      -nan      -nan      -nan      -nan      -nan      -nan 
average row locality = 1637/28 = 58.464287
number of total memory accesses made:
dram[0]:         0         0         0         0         0         0         0         0         0         0         0         0         0         0         0         0 
dram[1]:         0         0         0         0         0         0         0         0         0         0         0         0         0         0         0         0 
dram[2]:         0         0         0         0         0         0         0         0         0         0         0         0         0         0         0         0 
dram[3]:         0         0         0         0         0         0         0         0         0         0         0         0         0         0         0         0 
dram[4]:         0         0         0         0         0         0         0         0         0         0         0         0         0         0         0         0 
dram[5]:         0         0         0         0         0         0         0         0         0         0         0         0         0         0         0         0 
total accesses: 0
min_bank_accesses = 0!
min_chip_accesses = 0!
number of total read accesses:
dram[0]:         3         0         0         0        10        10        32        32         0         0         0         0         0         0         0         0 
dram[1]:         2         0         0         0        10        10        32        32         0         0         0         0         0         0         0         0 
dram[2]:         0         0         0         0        10        12        32        32         0         0         0         0         0         0         0         0 
dram[3]:         0         0         0         0        10        12        32        32         0         0         0         0         0         0         0         0 
dram[4]:         0         0         0         0        10        12        32        32         0         0         0         0         0         0         0         0 
dram[5]:         0         0         0         0        10        12        32        32         0         0         0         0         0         0         0         0 
total reads: 517
min_bank_accesses = 0!
chip skew: 87/86 = 1.01
number of total write accesses:
dram[0]:         0         0         0         0        25        25        69        63         0         0         0         0         0         0         0         0 
dram[1]:         0         0         0         0        25        25        69        63         0         0         0         0         0         0         0         0 
dram[2]:         0         0         0         0        25        30        69        68         0         0         0         0         0         0         0         0 
dram[3]:         0         0         0         0        25        30        69        68         0         0         0         0         0         0         0         0 
dram[4]:         0         0         0         0        25        30        63        68         0         0         0         0         0         0         0         0 
dram[5]:         0         0         0         0        25        30        63        68         0         0         0         0         0         0         0         0 
total reads: 1120
min_bank_accesses = 0!
chip skew: 192/182 = 1.05
average mf latency per bank:
dram[0]:       1300    none      none      none        6556      6434      6962      7291    none      none      none      none      none      none      none      none  
dram[1]:          0    none      none      none        6513      6379      6909      7231    none      none      none      none      none      none      none      none  
dram[2]:     none      none      none      none        6471      6539      6863      7032    none      none      none      none      none      none      none      none  
dram[3]:     none      none      none      none        6418      6494      6809      6980    none      none      none      none      none      none      none      none  
dram[4]:     none      none      none      none        6509      6430      7392      6931    none      none      none      none      none      none      none      none  
dram[5]:     none      none      none      none        6468      6385      7339      6875    none      none      none      none      none      none      none      none  
maximum mf latency per bank:
dram[0]:        278         0         0         0       515       411       327       339         0         0         0         0         0         0         0         0
dram[1]:          0         0         0         0       515       409       321       341         0         0         0         0         0         0         0         0
dram[2]:          0         0         0         0       515       524       337       337         0         0         0         0         0         0         0         0
dram[3]:          0         0         0         0       515       523       329       335         0         0         0         0         0         0         0         0
dram[4]:          0         0         0         0       414       516       329       342         0         0         0         0         0         0         0         0
dram[5]:          0         0         0         0       411       515       334       328         0         0         0         0         0         0         0         0
Memory Partition 0: 
Cache L2_bank_000:
MSHR contents

Cache L2_bank_001:
MSHR contents

In Dram Latency Queue (total = 0): 
DRAM[0]: 16 bks, busW=4 BL=8 CL=12, tRRD=2 tCCD=6, tRCD=12 tRAS=28 tRP=12 tRC=40
n_cmd=305946 n_nop=305581 n_act=7 n_pre=2 n_req=269 n_rd=174 n_write=182 bw_util=0.002327
n_activity=2816 dram_eff=0.2528
bk0: 6a 305874i bk1: 0a 305944i bk2: 0a 305947i bk3: 0a 305948i bk4: 20a 305692i bk5: 20a 305603i bk6: 64a 305158i bk7: 64a 304994i bk8: 0a 305944i bk9: 0a 305945i bk10: 0a 305945i bk11: 0a 305946i bk12: 0a 305946i bk13: 0a 305946i bk14: 0a 305946i bk15: 0a 305946i 
dram_util_bins: 0 0 0 0 0 0 0 0 0 0
dram_eff_bins: 0 0 0 0 0 0 0 0 0 0
mrqq: max=4 avg=0.00420009
Memory Partition 1: 
Cache L2_bank_002:
MSHR contents

Cache L2_bank_003:
MSHR contents

In Dram Latency Queue (total = 0): 
DRAM[1]: 16 bks, busW=4 BL=8 CL=12, tRRD=2 tCCD=6, tRCD=12 tRAS=28 tRP=12 tRC=40
n_cmd=305946 n_nop=305587 n_act=5 n_pre=0 n_req=268 n_rd=172 n_write=182 bw_util=0.002314
n_activity=2727 dram_eff=0.2596
bk0: 4a 305926i bk1: 0a 305946i bk2: 0a 305946i bk3: 0a 305948i bk4: 20a 305693i bk5: 20a 305604i bk6: 64a 305159i bk7: 64a 304995i bk8: 0a 305944i bk9: 0a 305945i bk10: 0a 305945i bk11: 0a 305946i bk12: 0a 305946i bk13: 0a 305946i bk14: 0a 305946i bk15: 0a 305946i 
dram_util_bins: 0 0 0 0 0 0 0 0 0 0
dram_eff_bins: 0 0 0 0 0 0 0 0 0 0
mrqq: max=4 avg=0.00417394
Memory Partition 2: 
Cache L2_bank_004:
MSHR contents

Cache L2_bank_005:
MSHR contents

In Dram Latency Queue (total = 0): 
DRAM[2]: 16 bks, busW=4 BL=8 CL=12, tRRD=2 tCCD=6, tRCD=12 tRAS=28 tRP=12 tRC=40
n_cmd=305946 n_nop=305578 n_act=4 n_pre=0 n_req=278 n_rd=172 n_write=192 bw_util=0.00238
n_activity=2740 dram_eff=0.2657
bk0: 0a 305947i bk1: 0a 305948i bk2: 0a 305948i bk3: 0a 305948i bk4: 20a 305686i bk5: 24a 305547i bk6: 64a 305106i bk7: 64a 304952i bk8: 0a 305943i bk9: 0a 305944i bk10: 0a 305945i bk11: 0a 305945i bk12: 0a 305945i bk13: 0a 305945i bk14: 0a 305946i bk15: 0a 305946i 
dram_util_bins: 0 0 0 0 0 0 0 0 0 0
dram_eff_bins: 0 0 0 0 0 0 0 0 0 0
mrqq: max=4 avg=0.00456617
Memory Partition 3: 
Cache L2_bank_006:
MSHR contents

Cache L2_bank_007:
MSHR contents

In Dram Latency Queue (total = 0): 
DRAM[3]: 16 bks, busW=4 BL=8 CL=12, tRRD=2 tCCD=6, tRCD=12 tRAS=28 tRP=12 tRC=40
n_cmd=305946 n_nop=305578 n_act=4 n_pre=0 n_req=278 n_rd=172 n_write=192 bw_util=0.00238
n_activity=2745 dram_eff=0.2652
bk0: 0a 305947i bk1: 0a 305948i bk2: 0a 305948i bk3: 0a 305948i bk4: 20a 305687i bk5: 24a 305547i bk6: 64a 305081i bk7: 64a 304977i bk8: 0a 305943i bk9: 0a 305944i bk10: 0a 305945i bk11: 0a 305945i bk12: 0a 305945i bk13: 0a 305945i bk14: 0a 305946i bk15: 0a 305946i 
dram_util_bins: 0 0 0 0 0 0 0 0 0 0
dram_eff_bins: 0 0 0 0 0 0 0 0 0 0
mrqq: max=4 avg=0.00457924
Memory Partition 4: 
Cache L2_bank_008:
MSHR contents

Cache L2_bank_009:
MSHR contents

In Dram Latency Queue (total = 0): 
DRAM[4]: 16 bks, busW=4 BL=8 CL=12, tRRD=2 tCCD=6, tRCD=12 tRAS=28 tRP=12 tRC=40
n_cmd=305946 n_nop=305584 n_act=4 n_pre=0 n_req=272 n_rd=172 n_write=186 bw_util=0.00234
n_activity=2722 dram_eff=0.263
bk0: 0a 305947i bk1: 0a 305949i bk2: 0a 305949i bk3: 0a 305949i bk4: 20a 305694i bk5: 24a 305528i bk6: 64a 305140i bk7: 64a 305014i bk8: 0a 305942i bk9: 0a 305943i bk10: 0a 305944i bk11: 0a 305945i bk12: 0a 305945i bk13: 0a 305945i bk14: 0a 305945i bk15: 0a 305947i 
dram_util_bins: 0 0 0 0 0 0 0 0 0 0
dram_eff_bins: 0 0 0 0 0 0 0 0 0 0
mrqq: max=4 avg=0.00412491
Memory Partition 5: 
Cache L2_bank_010:
MSHR contents

Cache L2_bank_011:
MSHR contents

In Dram Latency Queue (total = 0): 
DRAM[5]: 16 bks, busW=4 BL=8 CL=12, tRRD=2 tCCD=6, tRCD=12 tRAS=28 tRP=12 tRC=40
n_cmd=305946 n_nop=305584 n_act=4 n_pre=0 n_req=272 n_rd=172 n_write=186 bw_util=0.00234
n_activity=2727 dram_eff=0.2626
bk0: 0a 305947i bk1: 0a 305949i bk2: 0a 305949i bk3: 0a 305949i bk4: 20a 305692i bk5: 24a 305527i bk6: 64a 305110i bk7: 64a 305033i bk8: 0a 305942i bk9: 0a 305943i bk10: 0a 305944i bk11: 0a 305945i bk12: 0a 305945i bk13: 0a 305945i bk14: 0a 305945i bk15: 0a 305947i 
dram_util_bins: 0 0 0 0 0 0 0 0 0 0
dram_eff_bins: 0 0 0 0 0 0 0 0 0 0
mrqq: max=4 avg=0.00424912

========= L2 cache stats =========
L2_cache_bank[0]: Access = 5421, Miss = 45, Miss_rate = 0.008, Pending_hits = 61, Reservation_fails = 676
L2_cache_bank[1]: Access = 5376, Miss = 42, Miss_rate = 0.008, Pending_hits = 46, Reservation_fails = 228
L2_cache_bank[2]: Access = 5406, Miss = 44, Miss_rate = 0.008, Pending_hits = 58, Reservation_fails = 452
L2_cache_bank[3]: Access = 5376, Miss = 42, Miss_rate = 0.008, Pending_hits = 46, Reservation_fails = 228
L2_cache_bank[4]: Access = 5376, Miss = 42, Miss_rate = 0.008, Pending_hits = 52, Reservation_fails = 334
L2_cache_bank[5]: Access = 5632, Miss = 44, Miss_rate = 0.008, Pending_hits = 54, Reservation_fails = 343
L2_cache_bank[6]: Access = 5376, Miss = 42, Miss_rate = 0.008, Pending_hits = 52, Reservation_fails = 334
L2_cache_bank[7]: Access = 5632, Miss = 44, Miss_rate = 0.008, Pending_hits = 54, Reservation_fails = 343
L2_cache_bank[8]: Access = 5376, Miss = 42, Miss_rate = 0.008, Pending_hits = 46, Reservation_fails = 227
L2_cache_bank[9]: Access = 5632, Miss = 44, Miss_rate = 0.008, Pending_hits = 54, Reservation_fails = 333
L2_cache_bank[10]: Access = 5376, Miss = 42, Miss_rate = 0.008, Pending_hits = 46, Reservation_fails = 227
L2_cache_bank[11]: Access = 5632, Miss = 44, Miss_rate = 0.008, Pending_hits = 54, Reservation_fails = 333
L2_total_cache_accesses = 65611
L2_total_cache_misses = 517
L2_total_cache_miss_rate = 0.0079
L2_total_cache_pending_hits = 623
L2_total_cache_reservation_fails = 4058
L2_total_cache_breakdown:
	L2_cache_stats_breakdown[CONST_ACC_R][HIT] = 11
	L2_cache_stats_breakdown[CONST_ACC_R][HIT_RESERVED] = 3
	L2_cache_stats_breakdown[CONST_ACC_R][MISS] = 1
	L2_cache_stats_breakdown[CONST_ACC_R][RESERVATION_FAIL] = 109
	L2_cache_stats_breakdown[GLOBAL_ACC_W][HIT] = 64416
	L2_cache_stats_breakdown[GLOBAL_ACC_W][HIT_RESERVED] = 608
	L2_cache_stats_breakdown[GLOBAL_ACC_W][MISS] = 512
	L2_cache_stats_breakdown[GLOBAL_ACC_W][RESERVATION_FAIL] = 3598
	L2_cache_stats_breakdown[INST_ACC_R][HIT] = 44
	L2_cache_stats_breakdown[INST_ACC_R][HIT_RESERVED] = 12
	L2_cache_stats_breakdown[INST_ACC_R][MISS] = 4
	L2_cache_stats_breakdown[INST_ACC_R][RESERVATION_FAIL] = 351
L2_cache_data_port_util = 0.023
L2_cache_fill_port_util = 0.001

icnt_total_pkts_mem_to_simt=65881
icnt_total_pkts_simt_to_mem=131147
LD_mem_lat_dist  0 0 0 0 0 0 0 0 0 0 0 0 0 0 0 0 0 0 0 0 0 0 0 0 0 0 0
ST_mem_lat_dist  0 0 0 0 0 0 0 0 0 0 0 0 0 0 0 0 0 0 0 0 0 0 0 0 0 0 0
----------------------------Interconnect-DETAILS--------------------------------
Class 0:
Packet latency average = 14.3076
	minimum = 6
	maximum = 304
Network latency average = 9.78075
	minimum = 6
	maximum = 293
Slowest packet = 648
Flit latency average = 10.2844
	minimum = 6
	maximum = 292
Slowest flit = 1460
Fragmentation average = 0
	minimum = 0
	maximum = 0
Injected packet rate average = 0.0209687
	minimum = 0.0178317 (at node 10)
	maximum = 0.0242991 (at node 20)
Accepted packet rate average = 0.0209687
	minimum = 0.0178317 (at node 10)
	maximum = 0.0242991 (at node 20)
Injected flit rate average = 0.0314842
	minimum = 0.0231946 (at node 16)
	maximum = 0.0395076 (at node 5)
Accepted flit rate average= 0.0314842
	minimum = 0.0179094 (at node 10)
	maximum = 0.0485982 (at node 20)
Injected packet length average = 1.50149
Accepted packet length average = 1.50149
Total in-flight flits = 0 (0 measured)
====== Overall Traffic Statistics ======
====== Traffic class 0 ======
Packet latency average = 14.3076 (1 samples)
	minimum = 6 (1 samples)
	maximum = 304 (1 samples)
Network latency average = 9.78075 (1 samples)
	minimum = 6 (1 samples)
	maximum = 293 (1 samples)
Flit latency average = 10.2844 (1 samples)
	minimum = 6 (1 samples)
	maximum = 292 (1 samples)
Fragmentation average = 0 (1 samples)
	minimum = 0 (1 samples)
	maximum = 0 (1 samples)
Injected packet rate average = 0.0209687 (1 samples)
	minimum = 0.0178317 (1 samples)
	maximum = 0.0242991 (1 samples)
Accepted packet rate average = 0.0209687 (1 samples)
	minimum = 0.0178317 (1 samples)
	maximum = 0.0242991 (1 samples)
Injected flit rate average = 0.0314842 (1 samples)
	minimum = 0.0231946 (1 samples)
	maximum = 0.0395076 (1 samples)
Accepted flit rate average = 0.0314842 (1 samples)
	minimum = 0.0179094 (1 samples)
	maximum = 0.0485982 (1 samples)
Injected packet size average = 1.50149 (1 samples)
Accepted packet size average = 1.50149 (1 samples)
Hops average = 1 (1 samples)
----------------------------END-of-Interconnect-DETAILS-------------------------


gpgpu_simulation_time = 0 days, 0 hrs, 2 min, 44 sec (164 sec)
gpgpu_simulation_rate = 319875 (inst/sec)
gpgpu_simulation_rate = 1413 (cycle/sec)
