

        *** GPGPU-Sim Simulator Version 3.2.2  [build 17315] ***


GPGPU-Sim PTX: simulation mode 0 (can change with PTX_SIM_MODE_FUNC environment variable:
               1=functional simulation only, 0=detailed performance simulator)
GPGPU-Sim: Configuration options:

-network_mode                           1 # Interconnection network mode
-inter_config_file   config_fermi_islip.icnt # Interconnection network config file
-gpgpu_ptx_use_cuobjdump                    1 # Use cuobjdump to extract ptx and sass from binaries
-gpgpu_experimental_lib_support                    0 # Try to extract code from cuda libraries [Broken because of unknown cudaGetExportTable]
-gpgpu_ptx_convert_to_ptxplus                    0 # Convert SASS (native ISA) to ptxplus and run ptxplus
-gpgpu_ptx_force_max_capability                   20 # Force maximum compute capability
-gpgpu_ptx_inst_debug_to_file                    0 # Dump executed instructions' debug information to file
-gpgpu_ptx_inst_debug_file       inst_debug.txt # Executed instructions' debug output file
-gpgpu_ptx_inst_debug_thread_uid                    1 # Thread UID for executed instructions' debug output
-gpgpu_simd_model                       1 # 1 = post-dominator
-gpgpu_shader_core_pipeline              1536:32 # shader core pipeline config, i.e., {<nthread>:<warpsize>}
-gpgpu_tex_cache:l1  4:128:24,L:R:m:N,F:128:4,128:2 # per-shader L1 texture cache  (READ-ONLY) config  {<nsets>:<bsize>:<assoc>,<rep>:<wr>:<alloc>:<wr_alloc>,<mshr>:<N>:<merge>,<mq>:<rf>}
-gpgpu_const_cache:l1 64:64:2,L:R:f:N,A:2:32,4 # per-shader L1 constant memory cache  (READ-ONLY) config  {<nsets>:<bsize>:<assoc>,<rep>:<wr>:<alloc>:<wr_alloc>,<mshr>:<N>:<merge>,<mq>} 
-gpgpu_cache:il1     4:128:4,L:R:f:N,A:2:32,4 # shader L1 instruction cache config  {<nsets>:<bsize>:<assoc>,<rep>:<wr>:<alloc>:<wr_alloc>,<mshr>:<N>:<merge>,<mq>} 
-gpgpu_cache:dl1     32:128:4,L:L:m:N,A:32:8,8 # per-shader L1 data cache config  {<nsets>:<bsize>:<assoc>,<rep>:<wr>:<alloc>:<wr_alloc>,<mshr>:<N>:<merge>,<mq> | none}
-gpgpu_cache:dl1PrefL1                 none # per-shader L1 data cache config  {<nsets>:<bsize>:<assoc>,<rep>:<wr>:<alloc>:<wr_alloc>,<mshr>:<N>:<merge>,<mq> | none}
-gpgpu_cache:dl1PreShared                 none # per-shader L1 data cache config  {<nsets>:<bsize>:<assoc>,<rep>:<wr>:<alloc>:<wr_alloc>,<mshr>:<N>:<merge>,<mq> | none}
-gmem_skip_L1D                          0 # global memory access skip L1D cache (implements -Xptxas -dlcm=cg, default=no skip)
-gpgpu_perfect_mem                      0 # enable perfect memory mode (no cache miss)
-n_regfile_gating_group                    4 # group of lanes that should be read/written together)
-gpgpu_clock_gated_reg_file                    0 # enable clock gated reg file for power calculations
-gpgpu_clock_gated_lanes                    0 # enable clock gated lanes for power calculations
-gpgpu_shader_registers                32768 # Number of registers per shader core. Limits number of concurrent CTAs. (default 8192)
-gpgpu_shader_cta                       8 # Maximum number of concurrent CTAs in shader (default 8)
-gpgpu_n_clusters                      15 # number of processing clusters
-gpgpu_n_cores_per_cluster                    1 # number of simd cores per cluster
-gpgpu_n_cluster_ejection_buffer_size                    8 # number of packets in ejection buffer
-gpgpu_n_ldst_response_buffer_size                    2 # number of response packets in ld/st unit ejection buffer
-gpgpu_shmem_size                   16384 # Size of shared memory per shader core (default 16kB)
-gpgpu_shmem_size                   49152 # Size of shared memory per shader core (default 16kB)
-gpgpu_shmem_size_PrefL1                16384 # Size of shared memory per shader core (default 16kB)
-gpgpu_shmem_size_PrefShared                16384 # Size of shared memory per shader core (default 16kB)
-gpgpu_shmem_num_banks                   32 # Number of banks in the shared memory in each shader core (default 16)
-gpgpu_shmem_limited_broadcast                    0 # Limit shared memory to do one broadcast per cycle (default on)
-gpgpu_shmem_warp_parts                    1 # Number of portions a warp is divided into for shared memory bank conflict check 
-gpgpu_warpdistro_shader                   -1 # Specify which shader core to collect the warp size distribution from
-gpgpu_warp_issue_shader                    0 # Specify which shader core to collect the warp issue distribution from
-gpgpu_local_mem_map                    1 # Mapping from local memory space address to simulated GPU physical address space (default = enabled)
-gpgpu_num_reg_banks                   16 # Number of register banks (default = 8)
-gpgpu_reg_bank_use_warp_id                    0 # Use warp ID in mapping registers to banks (default = off)
-gpgpu_operand_collector_num_units_sp                    6 # number of collector units (default = 4)
-gpgpu_operand_collector_num_units_sfu                    8 # number of collector units (default = 4)
-gpgpu_operand_collector_num_units_mem                    2 # number of collector units (default = 2)
-gpgpu_operand_collector_num_units_gen                    0 # number of collector units (default = 0)
-gpgpu_operand_collector_num_in_ports_sp                    2 # number of collector unit in ports (default = 1)
-gpgpu_operand_collector_num_in_ports_sfu                    1 # number of collector unit in ports (default = 1)
-gpgpu_operand_collector_num_in_ports_mem                    1 # number of collector unit in ports (default = 1)
-gpgpu_operand_collector_num_in_ports_gen                    0 # number of collector unit in ports (default = 0)
-gpgpu_operand_collector_num_out_ports_sp                    2 # number of collector unit in ports (default = 1)
-gpgpu_operand_collector_num_out_ports_sfu                    1 # number of collector unit in ports (default = 1)
-gpgpu_operand_collector_num_out_ports_mem                    1 # number of collector unit in ports (default = 1)
-gpgpu_operand_collector_num_out_ports_gen                    0 # number of collector unit in ports (default = 0)
-gpgpu_coalesce_arch                   13 # Coalescing arch (default = 13, anything else is off for now)
-gpgpu_num_sched_per_core                    2 # Number of warp schedulers per core
-gpgpu_max_insn_issue_per_warp                    1 # Max number of instructions that can be issued per warp in one cycle by scheduler
-gpgpu_simt_core_sim_order                    1 # Select the simulation order of cores in a cluster (0=Fix, 1=Round-Robin)
-gpgpu_pipeline_widths        2,1,1,2,1,1,2 # Pipeline widths ID_OC_SP,ID_OC_SFU,ID_OC_MEM,OC_EX_SP,OC_EX_SFU,OC_EX_MEM,EX_WB
-gpgpu_num_sp_units                     2 # Number of SP units (default=1)
-gpgpu_num_sfu_units                    1 # Number of SF units (default=1)
-gpgpu_num_mem_units                    1 # Number if ldst units (default=1) WARNING: not hooked up to anything
-gpgpu_scheduler                      gto # Scheduler configuration: < lrr | gto | two_level_active > If two_level_active:<num_active_warps>:<inner_prioritization>:<outer_prioritization>For complete list of prioritization values see shader.h enum scheduler_prioritization_typeDefault: gto
-gpgpu_dram_scheduler                    1 # 0 = fifo, 1 = FR-FCFS (defaul)
-gpgpu_dram_partition_queues              8:8:8:8 # i2$:$2d:d2$:$2i
-l2_ideal                               0 # Use a ideal L2 cache that always hit
-gpgpu_cache:dl2     64:128:8,L:B:m:W,A:32:4,4:0,32 # unified banked L2 data cache config  {<nsets>:<bsize>:<assoc>,<rep>:<wr>:<alloc>:<wr_alloc>,<mshr>:<N>:<merge>,<mq>}
-gpgpu_cache:dl2_texture_only                    0 # L2 cache used for texture only
-gpgpu_n_mem                            6 # number of memory modules (e.g. memory controllers) in gpu
-gpgpu_n_sub_partition_per_mchannel                    2 # number of memory subpartition in each memory module
-gpgpu_n_mem_per_ctrlr                    2 # number of memory chips per memory controller
-gpgpu_memlatency_stat                   14 # track and display latency statistics 0x2 enables MC, 0x4 enables queue logs
-gpgpu_frfcfs_dram_sched_queue_size                   16 # 0 = unlimited (default); # entries per chip
-gpgpu_dram_return_queue_size                  116 # 0 = unlimited (default); # entries per chip
-gpgpu_dram_buswidth                    4 # default = 4 bytes (8 bytes per cycle at DDR)
-gpgpu_dram_burst_length                    8 # Burst length of each DRAM request (default = 4 data bus cycle)
-dram_data_command_freq_ratio                    4 # Frequency ratio between DRAM data bus and command bus (default = 2 times, i.e. DDR)
-gpgpu_dram_timing_opt nbk=16:CCD=2:RRD=6:RCD=12:RAS=28:RP=12:RC=40: CL=12:WL=4:CDLR=5:WR=12:nbkgrp=4:CCDL=3:RTPL=2 # DRAM timing parameters = {nbk:tCCD:tRRD:tRCD:tRAS:tRP:tRC:CL:WL:tCDLR:tWR:nbkgrp:tCCDL:tRTPL}
-rop_latency                          120 # ROP queue latency (default 85)
-dram_latency                         100 # DRAM latency (default 30)
-gpgpu_mem_addr_mapping dramid@8;00000000.00000000.00000000.00000000.0000RRRR.RRRRRRRR.BBBCCCCB.CCSSSSSS # mapping memory address to dram model {dramid@<start bit>;<memory address map>}
-gpgpu_mem_addr_test                    0 # run sweep test to check address mapping for aliased address
-gpgpu_mem_address_mask                    1 # 0 = old addressing mask, 1 = new addressing mask, 2 = new add. mask + flipped bank sel and chip sel bits
-gpuwattch_xml_file         gpuwattch.xml # GPUWattch XML file
-power_simulation_enabled                    0 # Turn on power simulator (1=On, 0=Off)
-power_per_cycle_dump                    0 # Dump detailed power output each cycle
-power_trace_enabled                    0 # produce a file for the power trace (1=On, 0=Off)
-power_trace_zlevel                     6 # Compression level of the power trace output log (0=no comp, 9=highest)
-steady_power_levels_enabled                    0 # produce a file for the steady power levels (1=On, 0=Off)
-steady_state_definition                  8:4 # allowed deviation:number of samples
-gpgpu_max_cycle                        0 # terminates gpu simulation early (0 = no limit)
-gpgpu_max_insn                         0 # terminates gpu simulation early (0 = no limit)
-gpgpu_max_cta                          0 # terminates gpu simulation early (0 = no limit)
-gpgpu_runtime_stat                   500 # display runtime statistics such as dram utilization {<freq>:<flag>}
-liveness_message_freq                    1 # Minimum number of seconds between simulation liveness messages (0 = always print)
-gpgpu_flush_l1_cache                    0 # Flush L1 cache at the end of each kernel call
-gpgpu_flush_l2_cache                    0 # Flush L2 cache at the end of each kernel call
-gpgpu_deadlock_detect                    1 # Stop the simulation at deadlock (1=on (default), 0=off)
-gpgpu_ptx_instruction_classification                    0 # if enabled will classify ptx instruction types per kernel (Max 255 kernels now)
-gpgpu_ptx_sim_mode                     0 # Select between Performance (default) or Functional simulation (1)
-gpgpu_clock_domains 700.0:700.0:700.0:924.0 # Clock Domain Frequencies in MhZ {<Core Clock>:<ICNT Clock>:<L2 Clock>:<DRAM Clock>}
-gpgpu_max_concurrent_kernel                    8 # maximum kernels that can run concurrently on GPU
-gpgpu_cflog_interval                    0 # Interval between each snapshot in control flow logger
-visualizer_enabled                     0 # Turn on visualizer output (1=On, 0=Off)
-visualizer_outputfile                 NULL # Specifies the output log file for visualizer
-visualizer_zlevel                      6 # Compression level of the visualizer output log (0=no comp, 9=highest)
-trace_enabled                          0 # Turn on traces
-trace_components                    none # comma seperated list of traces to enable. Complete list found in trace_streams.tup. Default none
-trace_sampling_core                    0 # The core which is printed using CORE_DPRINTF. Default 0
-trace_sampling_memory_partition                   -1 # The memory partition which is printed using MEMPART_DPRINTF. Default -1 (i.e. all)
-enable_ptx_file_line_stats                    1 # Turn on PTX source line statistic profiling. (1 = On)
-ptx_line_stats_filename gpgpu_inst_stats.txt # Output file for PTX source line statistics.
-save_embedded_ptx                      0 # saves ptx files embedded in binary as <n>.ptx
-keep                                   0 # keep intermediate files created by GPGPU-Sim when interfacing with external programs
-gpgpu_ptx_save_converted_ptxplus                    0 # Saved converted ptxplus to a file
-ptx_opcode_latency_int         4,13,4,5,145 # Opcode latencies for integers <ADD,MAX,MUL,MAD,DIV>Default 1,1,19,25,145
-ptx_opcode_latency_fp          4,13,4,5,39 # Opcode latencies for single precision floating points <ADD,MAX,MUL,MAD,DIV>Default 1,1,1,1,30
-ptx_opcode_latency_dp         8,19,8,8,330 # Opcode latencies for double precision floating points <ADD,MAX,MUL,MAD,DIV>Default 8,8,8,8,335
-ptx_opcode_initiation_int            1,2,2,1,8 # Opcode initiation intervals for integers <ADD,MAX,MUL,MAD,DIV>Default 1,1,4,4,32
-ptx_opcode_initiation_fp            1,2,1,1,4 # Opcode initiation intervals for single precision floating points <ADD,MAX,MUL,MAD,DIV>Default 1,1,1,1,5
-ptx_opcode_initiation_dp         8,16,8,8,130 # Opcode initiation intervals for double precision floating points <ADD,MAX,MUL,MAD,DIV>Default 8,8,8,8,130
DRAM Timing Options:
nbk                                    16 # number of banks
CCD                                     2 # column to column delay
RRD                                     6 # minimal delay between activation of rows in different banks
RCD                                    12 # row to column delay
RAS                                    28 # time needed to activate row
RP                                     12 # time needed to precharge (deactivate) row
RC                                     40 # row cycle time
CDLR                                    5 # switching from write to read (changes tWTR)
WR                                     12 # last data-in to row precharge
CL                                     12 # CAS latency
WL                                      4 # Write latency
nbkgrp                                  4 # number of bank groups
CCDL                                    3 # column to column delay between accesses to different bank groups
RTPL                                    2 # read to precharge delay between accesses to different bank groups
Total number of memory sub partition = 12
addr_dec_mask[CHIP]  = 0000000000000000 	high:64 low:0
addr_dec_mask[BK]    = 000000000000e100 	high:16 low:8
addr_dec_mask[ROW]   = 000000000fff0000 	high:28 low:16
addr_dec_mask[COL]   = 0000000000001eff 	high:13 low:0
addr_dec_mask[BURST] = 000000000000003f 	high:6 low:0
sub_partition_id_mask = 0000000000000100
GPGPU-Sim uArch: clock freqs: 700000000.000000:700000000.000000:700000000.000000:924000000.000000
GPGPU-Sim uArch: clock periods: 0.00000000142857142857:0.00000000142857142857:0.00000000142857142857:0.00000000108225108225
*** Initializing Memory Statistics ***
GPGPU-Sim uArch: interconnect node map (shaderID+MemID to icntID)
GPGPU-Sim uArch: Memory nodes ID start from index: 15
GPGPU-Sim uArch:    0   1   2   3   4
GPGPU-Sim uArch:    5   6   7   8   9
GPGPU-Sim uArch:   10  11  12  13  14
GPGPU-Sim uArch:   15  16  17  18  19
GPGPU-Sim uArch:   20  21  22  23  24
GPGPU-Sim uArch:   25  26
GPGPU-Sim uArch: interconnect node reverse map (icntID to shaderID+MemID)
GPGPU-Sim uArch: Memory nodes start from ID: 15
GPGPU-Sim uArch:    0   1   2   3   4
GPGPU-Sim uArch:    5   6   7   8   9
GPGPU-Sim uArch:   10  11  12  13  14
GPGPU-Sim uArch:   15  16  17  18  19
GPGPU-Sim uArch:   20  21  22  23  24
GPGPU-Sim uArch:   25  26
35e4989e7e2383a1c0ff536b7ce586fc  /afs/tu-berlin.de/home/t/tobias.fuchs/irb-ubuntu/Dokumente/new4/MCS1415/CUDA/assignment1/gpumcs/gpu_out
GPGPU-Sim uArch: performance model initialization complete.
GPGPU-Sim PTX: __cudaRegisterFatBinary, fat_cubin_handle = 1, filename=gpu_julia.cu
self exe links to: /afs/tu-berlin.de/home/t/tobias.fuchs/irb-ubuntu/Dokumente/new4/MCS1415/CUDA/assignment1/gpumcs/gpu_out
Running md5sum using "md5sum /afs/tu-berlin.de/home/t/tobias.fuchs/irb-ubuntu/Dokumente/new4/MCS1415/CUDA/assignment1/gpumcs/gpu_out "
Running cuobjdump using "$CUDA_INSTALL_PATH/bin/cuobjdump -ptx -elf -sass /afs/tu-berlin.de/home/t/tobias.fuchs/irb-ubuntu/Dokumente/new4/MCS1415/CUDA/assignment1/gpumcs/gpu_out > _cuobjdump_complete_output_Vwlycs"
Parsing file _cuobjdump_complete_output_Vwlycs
######### cuobjdump parser ########
## Adding new section ELF
Adding arch: sm_10
Adding identifier: gpu_julia.cu
## Adding new section PTX
Adding ptx filename: _cuobjdump_1.ptx
Adding arch: sm_10
Adding identifier: gpu_julia.cu
Done parsing!!!
GPGPU-Sim PTX: __cudaRegisterFunction _Z12calc_fractaliiffPh : hostFun 0x0x401073, fat_cubin_handle = 1
GPGPU-Sim PTX: instruction assembly for function '_Z12calc_fractaliiffPh'...   done.
GPGPU-Sim PTX: finding reconvergence points for '_Z12calc_fractaliiffPh'...
GPGPU-Sim PTX: Finding dominators for '_Z12calc_fractaliiffPh'...
GPGPU-Sim PTX: Finding immediate dominators for '_Z12calc_fractaliiffPh'...
GPGPU-Sim PTX: Finding postdominators for '_Z12calc_fractaliiffPh'...
GPGPU-Sim PTX: Finding immediate postdominators for '_Z12calc_fractaliiffPh'...
GPGPU-Sim PTX: pre-decoding instructions for '_Z12calc_fractaliiffPh'...
GPGPU-Sim PTX: reconvergence points for _Z12calc_fractaliiffPh...
GPGPU-Sim PTX:  1 (potential) branch divergence @  PC=0x100 (_1.ptx:101) @%p1 bra $Lt_0_258;
GPGPU-Sim PTX:    immediate post dominator      @  PC=0x158 (_1.ptx:117) ld.param.s32 %r4, [__cudaparm__Z12calc_fractaliiffPh_width];
GPGPU-Sim PTX:  2 (potential) branch divergence @  PC=0x150 (_1.ptx:114) @%p2 bra $Lt_0_2306;
GPGPU-Sim PTX:    immediate post dominator      @  PC=0x158 (_1.ptx:117) ld.param.s32 %r4, [__cudaparm__Z12calc_fractaliiffPh_width];
GPGPU-Sim PTX: ... end of reconvergence points for _Z12calc_fractaliiffPh
GPGPU-Sim PTX: ... done pre-decoding instructions for '_Z12calc_fractaliiffPh'.
GPGPU-Sim PTX: finished parsing EMBEDDED .ptx file _1.ptx
Adding _cuobjdump_1.ptx with cubin handle 1
GPGPU-Sim PTX: extracting embedded .ptx to temporary file "_ptx_393ebH"
Running: cat _ptx_393ebH | sed 's/.version 1.5/.version 1.4/' | sed 's/, texmode_independent//' | sed 's/\(\.extern \.const\[1\] .b8 \w\+\)\[\]/\1\[1\]/' | sed 's/const\[.\]/const\[0\]/g' > _ptx2_qqTsaW
GPGPU-Sim PTX: generating ptxinfo using "$CUDA_INSTALL_PATH/bin/ptxas --gpu-name=sm_20 -v _ptx2_qqTsaW --output-file  /dev/null 2> _ptx_393ebHinfo"
GPGPU-Sim PTX: Kernel '_Z12calc_fractaliiffPh' : regs=9, lmem=0, smem=0, cmem=60
GPGPU-Sim PTX: removing ptxinfo using "rm -f _ptx_393ebH _ptx2_qqTsaW _ptx_393ebHinfo"
GPGPU-Sim PTX: loading globals with explicit initializers... 
GPGPU-Sim PTX: finished loading globals (0 bytes total).
GPGPU-Sim PTX: loading constants with explicit initializers...  done.

GPGPU-Sim PTX: cudaLaunch for 0x0x401073 (mode=performance simulation) on stream 0
GPGPU-Sim PTX: pushing kernel '_Z12calc_fractaliiffPh' to stream 0, gridDim= (256,4,1) blockDim = (1,64,1) 
kernel '_Z12calc_fractaliiffPh' transfer to GPU hardware scheduler
GPGPU-Sim uArch: Shader 1 bind to kernel 1 '_Z12calc_fractaliiffPh'
GPGPU-Sim uArch: CTA/core = 8, limited by: cta_limit
GPGPU-Sim uArch: core:  1, cta: 0 initialized @(1,0)
GPGPU-Sim uArch: Shader 2 bind to kernel 1 '_Z12calc_fractaliiffPh'
GPGPU-Sim uArch: core:  2, cta: 0 initialized @(1,0)
GPGPU-Sim uArch: Shader 3 bind to kernel 1 '_Z12calc_fractaliiffPh'
GPGPU-Sim uArch: core:  3, cta: 0 initialized @(1,0)
GPGPU-Sim uArch: Shader 4 bind to kernel 1 '_Z12calc_fractaliiffPh'
GPGPU-Sim uArch: core:  4, cta: 0 initialized @(1,0)
GPGPU-Sim uArch: Shader 5 bind to kernel 1 '_Z12calc_fractaliiffPh'
GPGPU-Sim uArch: core:  5, cta: 0 initialized @(1,0)
GPGPU-Sim uArch: Shader 6 bind to kernel 1 '_Z12calc_fractaliiffPh'
GPGPU-Sim uArch: core:  6, cta: 0 initialized @(1,0)
GPGPU-Sim uArch: Shader 7 bind to kernel 1 '_Z12calc_fractaliiffPh'
GPGPU-Sim uArch: core:  7, cta: 0 initialized @(1,0)
GPGPU-Sim uArch: Shader 8 bind to kernel 1 '_Z12calc_fractaliiffPh'
GPGPU-Sim uArch: core:  8, cta: 0 initialized @(1,0)
GPGPU-Sim uArch: Shader 9 bind to kernel 1 '_Z12calc_fractaliiffPh'
GPGPU-Sim uArch: core:  9, cta: 0 initialized @(1,0)
GPGPU-Sim uArch: Shader 10 bind to kernel 1 '_Z12calc_fractaliiffPh'
GPGPU-Sim uArch: core: 10, cta: 0 initialized @(1,0)
GPGPU-Sim uArch: Shader 11 bind to kernel 1 '_Z12calc_fractaliiffPh'
GPGPU-Sim uArch: core: 11, cta: 0 initialized @(1,0)
GPGPU-Sim uArch: Shader 12 bind to kernel 1 '_Z12calc_fractaliiffPh'
GPGPU-Sim uArch: core: 12, cta: 0 initialized @(1,0)
GPGPU-Sim uArch: Shader 13 bind to kernel 1 '_Z12calc_fractaliiffPh'
GPGPU-Sim uArch: core: 13, cta: 0 initialized @(1,0)
GPGPU-Sim uArch: Shader 14 bind to kernel 1 '_Z12calc_fractaliiffPh'
GPGPU-Sim uArch: core: 14, cta: 0 initialized @(1,0)
GPGPU-Sim uArch: Shader 0 bind to kernel 1 '_Z12calc_fractaliiffPh'
GPGPU-Sim uArch: core:  0, cta: 0 initialized @(1,0)
GPGPU-Sim uArch: core:  1, cta: 1 initialized @(2,0)
GPGPU-Sim uArch: core:  2, cta: 1 initialized @(2,0)
GPGPU-Sim uArch: core:  3, cta: 1 initialized @(2,0)
GPGPU-Sim uArch: core:  4, cta: 1 initialized @(2,0)
GPGPU-Sim uArch: core:  5, cta: 1 initialized @(2,0)
GPGPU-Sim uArch: core:  6, cta: 1 initialized @(2,0)
GPGPU-Sim uArch: core:  7, cta: 1 initialized @(2,0)
GPGPU-Sim uArch: core:  8, cta: 1 initialized @(2,0)
GPGPU-Sim uArch: core:  9, cta: 1 initialized @(2,0)
GPGPU-Sim uArch: core: 10, cta: 1 initialized @(2,0)
GPGPU-Sim uArch: core: 11, cta: 1 initialized @(2,0)
GPGPU-Sim uArch: core: 12, cta: 1 initialized @(2,0)
GPGPU-Sim uArch: core: 13, cta: 1 initialized @(2,0)
GPGPU-Sim uArch: core: 14, cta: 1 initialized @(2,0)
GPGPU-Sim uArch: core:  0, cta: 1 initialized @(2,0)
GPGPU-Sim uArch: core:  1, cta: 2 initialized @(3,0)
GPGPU-Sim uArch: core:  2, cta: 2 initialized @(3,0)
GPGPU-Sim uArch: core:  3, cta: 2 initialized @(3,0)
GPGPU-Sim uArch: core:  4, cta: 2 initialized @(3,0)
GPGPU-Sim uArch: core:  5, cta: 2 initialized @(3,0)
GPGPU-Sim uArch: core:  6, cta: 2 initialized @(3,0)
GPGPU-Sim uArch: core:  7, cta: 2 initialized @(3,0)
GPGPU-Sim uArch: core:  8, cta: 2 initialized @(3,0)
GPGPU-Sim uArch: core:  9, cta: 2 initialized @(3,0)
GPGPU-Sim uArch: core: 10, cta: 2 initialized @(3,0)
GPGPU-Sim uArch: core: 11, cta: 2 initialized @(3,0)
GPGPU-Sim uArch: core: 12, cta: 2 initialized @(3,0)
GPGPU-Sim uArch: core: 13, cta: 2 initialized @(3,0)
GPGPU-Sim uArch: core: 14, cta: 2 initialized @(3,0)
GPGPU-Sim uArch: core:  0, cta: 2 initialized @(3,0)
GPGPU-Sim uArch: core:  1, cta: 3 initialized @(4,0)
GPGPU-Sim uArch: core:  2, cta: 3 initialized @(4,0)
GPGPU-Sim uArch: core:  3, cta: 3 initialized @(4,0)
GPGPU-Sim uArch: core:  4, cta: 3 initialized @(4,0)
GPGPU-Sim uArch: core:  5, cta: 3 initialized @(4,0)
GPGPU-Sim uArch: core:  6, cta: 3 initialized @(4,0)
GPGPU-Sim uArch: core:  7, cta: 3 initialized @(4,0)
GPGPU-Sim uArch: core:  8, cta: 3 initialized @(4,0)
GPGPU-Sim uArch: core:  9, cta: 3 initialized @(4,0)
GPGPU-Sim uArch: core: 10, cta: 3 initialized @(4,0)
GPGPU-Sim uArch: core: 11, cta: 3 initialized @(4,0)
GPGPU-Sim uArch: core: 12, cta: 3 initialized @(4,0)
GPGPU-Sim uArch: core: 13, cta: 3 initialized @(4,0)
GPGPU-Sim uArch: core: 14, cta: 3 initialized @(4,0)
GPGPU-Sim uArch: core:  0, cta: 3 initialized @(4,0)
GPGPU-Sim uArch: core:  1, cta: 4 initialized @(5,0)
GPGPU-Sim uArch: core:  2, cta: 4 initialized @(5,0)
GPGPU-Sim uArch: core:  3, cta: 4 initialized @(5,0)
GPGPU-Sim uArch: core:  4, cta: 4 initialized @(5,0)
GPGPU-Sim uArch: core:  5, cta: 4 initialized @(5,0)
GPGPU-Sim uArch: core:  6, cta: 4 initialized @(5,0)
GPGPU-Sim uArch: core:  7, cta: 4 initialized @(5,0)
GPGPU-Sim uArch: core:  8, cta: 4 initialized @(5,0)
GPGPU-Sim uArch: core:  9, cta: 4 initialized @(5,0)
GPGPU-Sim uArch: core: 10, cta: 4 initialized @(5,0)
GPGPU-Sim uArch: core: 11, cta: 4 initialized @(5,0)
GPGPU-Sim uArch: core: 12, cta: 4 initialized @(5,0)
GPGPU-Sim uArch: core: 13, cta: 4 initialized @(5,0)
GPGPU-Sim uArch: core: 14, cta: 4 initialized @(5,0)
GPGPU-Sim uArch: core:  0, cta: 4 initialized @(5,0)
GPGPU-Sim uArch: core:  1, cta: 5 initialized @(6,0)
GPGPU-Sim uArch: core:  2, cta: 5 initialized @(6,0)
GPGPU-Sim uArch: core:  3, cta: 5 initialized @(6,0)
GPGPU-Sim uArch: core:  4, cta: 5 initialized @(6,0)
GPGPU-Sim uArch: core:  5, cta: 5 initialized @(6,0)
GPGPU-Sim uArch: core:  6, cta: 5 initialized @(6,0)
GPGPU-Sim uArch: core:  7, cta: 5 initialized @(6,0)
GPGPU-Sim uArch: core:  8, cta: 5 initialized @(6,0)
GPGPU-Sim uArch: core:  9, cta: 5 initialized @(6,0)
GPGPU-Sim uArch: core: 10, cta: 5 initialized @(6,0)
GPGPU-Sim uArch: core: 11, cta: 5 initialized @(6,0)
GPGPU-Sim uArch: core: 12, cta: 5 initialized @(6,0)
GPGPU-Sim uArch: core: 13, cta: 5 initialized @(6,0)
GPGPU-Sim uArch: core: 14, cta: 5 initialized @(6,0)
GPGPU-Sim uArch: core:  0, cta: 5 initialized @(6,0)
GPGPU-Sim uArch: core:  1, cta: 6 initialized @(7,0)
GPGPU-Sim uArch: core:  2, cta: 6 initialized @(7,0)
GPGPU-Sim uArch: core:  3, cta: 6 initialized @(7,0)
GPGPU-Sim uArch: core:  4, cta: 6 initialized @(7,0)
GPGPU-Sim uArch: core:  5, cta: 6 initialized @(7,0)
GPGPU-Sim uArch: core:  6, cta: 6 initialized @(7,0)
GPGPU-Sim uArch: core:  7, cta: 6 initialized @(7,0)
GPGPU-Sim uArch: core:  8, cta: 6 initialized @(7,0)
GPGPU-Sim uArch: core:  9, cta: 6 initialized @(7,0)
GPGPU-Sim uArch: core: 10, cta: 6 initialized @(7,0)
GPGPU-Sim uArch: core: 11, cta: 6 initialized @(7,0)
GPGPU-Sim uArch: core: 12, cta: 6 initialized @(7,0)
GPGPU-Sim uArch: core: 13, cta: 6 initialized @(7,0)
GPGPU-Sim uArch: core: 14, cta: 6 initialized @(7,0)
GPGPU-Sim uArch: core:  0, cta: 6 initialized @(7,0)
GPGPU-Sim uArch: core:  1, cta: 7 initialized @(8,0)
GPGPU-Sim uArch: core:  2, cta: 7 initialized @(8,0)
GPGPU-Sim uArch: core:  3, cta: 7 initialized @(8,0)
GPGPU-Sim uArch: core:  4, cta: 7 initialized @(8,0)
GPGPU-Sim uArch: core:  5, cta: 7 initialized @(8,0)
GPGPU-Sim uArch: core:  6, cta: 7 initialized @(8,0)
GPGPU-Sim uArch: core:  7, cta: 7 initialized @(8,0)
GPGPU-Sim uArch: core:  8, cta: 7 initialized @(8,0)
GPGPU-Sim uArch: core:  9, cta: 7 initialized @(8,0)
GPGPU-Sim uArch: core: 10, cta: 7 initialized @(8,0)
GPGPU-Sim uArch: core: 11, cta: 7 initialized @(8,0)
GPGPU-Sim uArch: core: 12, cta: 7 initialized @(8,0)
GPGPU-Sim uArch: core: 13, cta: 7 initialized @(8,0)
GPGPU-Sim uArch: core: 14, cta: 7 initialized @(8,0)
GPGPU-Sim uArch: core:  0, cta: 7 initialized @(8,0)
GPGPU-Sim uArch: cycles simulated: 500  inst.: 61440 (ipc=122.9) sim_rate=61440 (inst/sec) elapsed = 0:0:00:01 / Fri Jan 16 05:16:48 2015
GPGPU-Sim PTX: 100000 instructions simulated : ctaid=(78,0,0) tid=(0,63,0)
GPGPU-Sim PTX: 200000 instructions simulated : ctaid=(0,0,0) tid=(0,31,0)
GPGPU-Sim PTX: 300000 instructions simulated : ctaid=(97,0,0) tid=(0,31,0)
GPGPU-Sim PTX: 400000 instructions simulated : ctaid=(14,0,0) tid=(0,31,0)
GPGPU-Sim PTX: 500000 instructions simulated : ctaid=(39,0,0) tid=(0,63,0)
GPGPU-Sim PTX: 600000 instructions simulated : ctaid=(45,0,0) tid=(0,35,0)
GPGPU-Sim PTX: 700000 instructions simulated : ctaid=(23,0,0) tid=(0,48,0)
GPGPU-Sim uArch: cycles simulated: 2000  inst.: 716129 (ipc=358.1) sim_rate=358064 (inst/sec) elapsed = 0:0:00:02 / Fri Jan 16 05:16:49 2015
GPGPU-Sim PTX: 800000 instructions simulated : ctaid=(84,0,0) tid=(0,29,0)
GPGPU-Sim PTX: 900000 instructions simulated : ctaid=(91,0,0) tid=(0,37,0)
GPGPU-Sim PTX: 1000000 instructions simulated : ctaid=(39,0,0) tid=(0,22,0)
GPGPU-Sim PTX: 1100000 instructions simulated : ctaid=(62,0,0) tid=(0,55,0)
GPGPU-Sim uArch: cycles simulated: 2500  inst.: 1045941 (ipc=418.4) sim_rate=348647 (inst/sec) elapsed = 0:0:00:03 / Fri Jan 16 05:16:50 2015
GPGPU-Sim PTX: 1200000 instructions simulated : ctaid=(66,0,0) tid=(0,34,0)
GPGPU-Sim PTX: 1300000 instructions simulated : ctaid=(102,0,0) tid=(0,6,0)
GPGPU-Sim uArch: Shader 2 finished CTA #0 (2883,0), 7 CTAs running
GPGPU-Sim uArch: core:  2, cta: 0 initialized @(2884,0)
GPGPU-Sim uArch: Shader 1 finished CTA #0 (2914,0), 7 CTAs running
GPGPU-Sim uArch: core:  1, cta: 0 initialized @(2915,0)
GPGPU-Sim PTX: 1400000 instructions simulated : ctaid=(32,0,0) tid=(0,28,0)
GPGPU-Sim uArch: Shader 3 finished CTA #0 (2962,0), 7 CTAs running
GPGPU-Sim uArch: core:  3, cta: 0 initialized @(2963,0)
GPGPU-Sim PTX: 1500000 instructions simulated : ctaid=(65,0,0) tid=(0,63,0)
GPGPU-Sim PTX: 1600000 instructions simulated : ctaid=(119,0,0) tid=(0,46,0)
GPGPU-Sim PTX: 1700000 instructions simulated : ctaid=(20,0,0) tid=(0,52,0)
GPGPU-Sim PTX: 1800000 instructions simulated : ctaid=(50,0,0) tid=(0,24,0)
GPGPU-Sim PTX: 1900000 instructions simulated : ctaid=(120,0,0) tid=(0,52,0)
GPGPU-Sim PTX: 2000000 instructions simulated : ctaid=(46,0,0) tid=(0,22,0)
GPGPU-Sim uArch: cycles simulated: 4000  inst.: 1970519 (ipc=492.6) sim_rate=492629 (inst/sec) elapsed = 0:0:00:04 / Fri Jan 16 05:16:51 2015
GPGPU-Sim PTX: 2100000 instructions simulated : ctaid=(47,0,0) tid=(0,41,0)
GPGPU-Sim PTX: 2200000 instructions simulated : ctaid=(110,0,0) tid=(0,24,0)
GPGPU-Sim PTX: 2300000 instructions simulated : ctaid=(60,0,0) tid=(0,43,0)
GPGPU-Sim PTX: 2400000 instructions simulated : ctaid=(46,0,0) tid=(0,63,0)
GPGPU-Sim uArch: Shader 13 finished CTA #4 (4783,0), 7 CTAs running
GPGPU-Sim uArch: core: 13, cta: 4 initialized @(4784,0)
GPGPU-Sim uArch: Shader 11 finished CTA #4 (4857,0), 7 CTAs running
GPGPU-Sim uArch: core: 11, cta: 4 initialized @(4858,0)
GPGPU-Sim uArch: Shader 14 finished CTA #4 (4882,0), 7 CTAs running
GPGPU-Sim uArch: core: 14, cta: 4 initialized @(4883,0)
GPGPU-Sim uArch: Shader 12 finished CTA #4 (4884,0), 7 CTAs running
GPGPU-Sim uArch: core: 12, cta: 4 initialized @(4885,0)
GPGPU-Sim PTX: 2500000 instructions simulated : ctaid=(122,0,0) tid=(0,55,0)
GPGPU-Sim uArch: cycles simulated: 5000  inst.: 2390578 (ipc=478.1) sim_rate=478115 (inst/sec) elapsed = 0:0:00:05 / Fri Jan 16 05:16:52 2015
GPGPU-Sim PTX: 2600000 instructions simulated : ctaid=(109,0,0) tid=(0,2,0)
GPGPU-Sim PTX: 2700000 instructions simulated : ctaid=(116,0,0) tid=(0,27,0)
GPGPU-Sim PTX: 2800000 instructions simulated : ctaid=(121,0,0) tid=(0,32,0)
GPGPU-Sim PTX: 2900000 instructions simulated : ctaid=(42,0,0) tid=(0,61,0)
GPGPU-Sim uArch: cycles simulated: 6000  inst.: 2745208 (ipc=457.5) sim_rate=457534 (inst/sec) elapsed = 0:0:00:06 / Fri Jan 16 05:16:53 2015
GPGPU-Sim PTX: 3000000 instructions simulated : ctaid=(27,0,0) tid=(0,37,0)
GPGPU-Sim PTX: 3100000 instructions simulated : ctaid=(21,0,0) tid=(0,27,0)
GPGPU-Sim uArch: Shader 2 finished CTA #3 (6890,0), 7 CTAs running
GPGPU-Sim uArch: core:  2, cta: 3 initialized @(6891,0)
GPGPU-Sim PTX: 3200000 instructions simulated : ctaid=(127,0,0) tid=(0,16,0)
GPGPU-Sim uArch: Shader 12 finished CTA #3 (7258,0), 7 CTAs running
GPGPU-Sim uArch: core: 12, cta: 3 initialized @(7259,0)
GPGPU-Sim PTX: 3300000 instructions simulated : ctaid=(118,0,0) tid=(0,2,0)
GPGPU-Sim uArch: Shader 0 finished CTA #3 (7376,0), 7 CTAs running
GPGPU-Sim uArch: core:  0, cta: 3 initialized @(7377,0)
GPGPU-Sim uArch: cycles simulated: 7500  inst.: 3149266 (ipc=419.9) sim_rate=449895 (inst/sec) elapsed = 0:0:00:07 / Fri Jan 16 05:16:54 2015
GPGPU-Sim PTX: 3400000 instructions simulated : ctaid=(123,0,0) tid=(0,29,0)
GPGPU-Sim PTX: 3500000 instructions simulated : ctaid=(5,0,0) tid=(0,53,0)
GPGPU-Sim uArch: Shader 4 finished CTA #0 (8304,0), 7 CTAs running
GPGPU-Sim uArch: core:  4, cta: 0 initialized @(8305,0)
GPGPU-Sim uArch: Shader 5 finished CTA #4 (8506,0), 7 CTAs running
GPGPU-Sim uArch: core:  5, cta: 4 initialized @(8507,0)
GPGPU-Sim PTX: 3600000 instructions simulated : ctaid=(31,0,0) tid=(0,34,0)
GPGPU-Sim uArch: Shader 3 finished CTA #3 (8656,0), 7 CTAs running
GPGPU-Sim uArch: core:  3, cta: 3 initialized @(8657,0)
GPGPU-Sim uArch: Shader 1 finished CTA #3 (8715,0), 7 CTAs running
GPGPU-Sim uArch: core:  1, cta: 3 initialized @(8716,0)
GPGPU-Sim uArch: Shader 10 finished CTA #3 (8793,0), 7 CTAs running
GPGPU-Sim uArch: core: 10, cta: 3 initialized @(8794,0)
GPGPU-Sim PTX: 3700000 instructions simulated : ctaid=(27,0,0) tid=(0,38,0)
GPGPU-Sim uArch: cycles simulated: 9000  inst.: 3499581 (ipc=388.8) sim_rate=437447 (inst/sec) elapsed = 0:0:00:08 / Fri Jan 16 05:16:55 2015
GPGPU-Sim PTX: 3800000 instructions simulated : ctaid=(131,0,0) tid=(0,2,0)
GPGPU-Sim uArch: Shader 14 finished CTA #3 (9470,0), 7 CTAs running
GPGPU-Sim uArch: core: 14, cta: 3 initialized @(9471,0)
GPGPU-Sim PTX: 3900000 instructions simulated : ctaid=(135,0,0) tid=(0,11,0)
GPGPU-Sim uArch: cycles simulated: 10000  inst.: 3712306 (ipc=371.2) sim_rate=412478 (inst/sec) elapsed = 0:0:00:09 / Fri Jan 16 05:16:56 2015
GPGPU-Sim uArch: Shader 0 finished CTA #2 (10256,0), 7 CTAs running
GPGPU-Sim uArch: core:  0, cta: 2 initialized @(10257,0)
GPGPU-Sim PTX: 4000000 instructions simulated : ctaid=(100,0,0) tid=(0,6,0)
GPGPU-Sim uArch: Shader 13 finished CTA #0 (10297,0), 7 CTAs running
GPGPU-Sim uArch: core: 13, cta: 0 initialized @(10298,0)
GPGPU-Sim uArch: Shader 1 finished CTA #1 (10324,0), 7 CTAs running
GPGPU-Sim uArch: core:  1, cta: 1 initialized @(10325,0)
GPGPU-Sim uArch: Shader 1 finished CTA #7 (10439,0), 7 CTAs running
GPGPU-Sim uArch: core:  1, cta: 7 initialized @(10440,0)
GPGPU-Sim uArch: Shader 5 finished CTA #5 (10623,0), 7 CTAs running
GPGPU-Sim uArch: core:  5, cta: 5 initialized @(10624,0)
GPGPU-Sim PTX: 4100000 instructions simulated : ctaid=(134,0,0) tid=(0,32,0)
GPGPU-Sim uArch: Shader 7 finished CTA #3 (10777,0), 7 CTAs running
GPGPU-Sim uArch: core:  7, cta: 3 initialized @(10778,0)
GPGPU-Sim uArch: Shader 2 finished CTA #5 (10830,0), 7 CTAs running
GPGPU-Sim uArch: core:  2, cta: 5 initialized @(10831,0)
GPGPU-Sim uArch: Shader 11 finished CTA #3 (11122,0), 7 CTAs running
GPGPU-Sim uArch: core: 11, cta: 3 initialized @(11123,0)
GPGPU-Sim uArch: Shader 4 finished CTA #3 (11123,0), 7 CTAs running
GPGPU-Sim uArch: core:  4, cta: 3 initialized @(11124,0)
GPGPU-Sim uArch: Shader 2 finished CTA #1 (11159,0), 7 CTAs running
GPGPU-Sim uArch: core:  2, cta: 1 initialized @(11160,0)
GPGPU-Sim PTX: 4200000 instructions simulated : ctaid=(33,0,0) tid=(0,27,0)
GPGPU-Sim uArch: cycles simulated: 11500  inst.: 4029691 (ipc=350.4) sim_rate=402969 (inst/sec) elapsed = 0:0:00:10 / Fri Jan 16 05:16:57 2015
GPGPU-Sim PTX: 4300000 instructions simulated : ctaid=(119,0,0) tid=(0,12,0)
GPGPU-Sim uArch: Shader 8 finished CTA #3 (11713,0), 7 CTAs running
GPGPU-Sim uArch: core:  8, cta: 3 initialized @(11714,0)
GPGPU-Sim PTX: 4400000 instructions simulated : ctaid=(128,0,0) tid=(0,51,0)
GPGPU-Sim PTX: 4500000 instructions simulated : ctaid=(106,0,0) tid=(0,26,0)
GPGPU-Sim uArch: Shader 0 finished CTA #6 (12880,0), 7 CTAs running
GPGPU-Sim uArch: core:  0, cta: 6 initialized @(12881,0)
GPGPU-Sim PTX: 4600000 instructions simulated : ctaid=(143,0,0) tid=(0,57,0)
GPGPU-Sim uArch: Shader 8 finished CTA #4 (12947,0), 7 CTAs running
GPGPU-Sim uArch: core:  8, cta: 4 initialized @(12948,0)
GPGPU-Sim uArch: cycles simulated: 13000  inst.: 4347375 (ipc=334.4) sim_rate=395215 (inst/sec) elapsed = 0:0:00:11 / Fri Jan 16 05:16:58 2015
GPGPU-Sim uArch: Shader 4 finished CTA #5 (13004,0), 7 CTAs running
GPGPU-Sim uArch: core:  4, cta: 5 initialized @(13005,0)
GPGPU-Sim uArch: Shader 7 finished CTA #4 (13052,0), 7 CTAs running
GPGPU-Sim uArch: core:  7, cta: 4 initialized @(13053,0)
GPGPU-Sim uArch: Shader 13 finished CTA #3 (13128,0), 7 CTAs running
GPGPU-Sim uArch: core: 13, cta: 3 initialized @(13129,0)
GPGPU-Sim uArch: Shader 3 finished CTA #4 (13242,0), 7 CTAs running
GPGPU-Sim uArch: core:  3, cta: 4 initialized @(13243,0)
GPGPU-Sim PTX: 4700000 instructions simulated : ctaid=(144,0,0) tid=(0,34,0)
GPGPU-Sim uArch: Shader 9 finished CTA #2 (13617,0), 7 CTAs running
GPGPU-Sim uArch: core:  9, cta: 2 initialized @(13618,0)
GPGPU-Sim uArch: Shader 0 finished CTA #0 (13620,0), 7 CTAs running
GPGPU-Sim uArch: core:  0, cta: 0 initialized @(13621,0)
GPGPU-Sim uArch: Shader 12 finished CTA #0 (13650,0), 7 CTAs running
GPGPU-Sim uArch: core: 12, cta: 0 initialized @(13651,0)
GPGPU-Sim PTX: 4800000 instructions simulated : ctaid=(145,0,0) tid=(0,39,0)
GPGPU-Sim uArch: Shader 12 finished CTA #2 (13838,0), 7 CTAs running
GPGPU-Sim uArch: core: 12, cta: 2 initialized @(13839,0)
GPGPU-Sim uArch: Shader 9 finished CTA #1 (13924,0), 7 CTAs running
GPGPU-Sim uArch: core:  9, cta: 1 initialized @(13925,0)
GPGPU-Sim uArch: Shader 8 finished CTA #0 (14007,0), 7 CTAs running
GPGPU-Sim uArch: core:  8, cta: 0 initialized @(14008,0)
GPGPU-Sim uArch: Shader 10 finished CTA #2 (14099,0), 7 CTAs running
GPGPU-Sim uArch: core: 10, cta: 2 initialized @(14100,0)
GPGPU-Sim uArch: Shader 14 finished CTA #2 (14114,0), 7 CTAs running
GPGPU-Sim uArch: core: 14, cta: 2 initialized @(14115,0)
GPGPU-Sim uArch: Shader 0 finished CTA #4 (14132,0), 7 CTAs running
GPGPU-Sim uArch: core:  0, cta: 4 initialized @(14133,0)
GPGPU-Sim uArch: Shader 13 finished CTA #5 (14135,0), 7 CTAs running
GPGPU-Sim uArch: core: 13, cta: 5 initialized @(14136,0)
GPGPU-Sim PTX: 4900000 instructions simulated : ctaid=(136,0,0) tid=(0,58,0)
GPGPU-Sim uArch: Shader 10 finished CTA #1 (14195,0), 7 CTAs running
GPGPU-Sim uArch: core: 10, cta: 1 initialized @(14196,0)
GPGPU-Sim uArch: Shader 8 finished CTA #1 (14217,0), 7 CTAs running
GPGPU-Sim uArch: core:  8, cta: 1 initialized @(14218,0)
GPGPU-Sim uArch: Shader 7 finished CTA #0 (14312,0), 7 CTAs running
GPGPU-Sim uArch: core:  7, cta: 0 initialized @(14313,0)
GPGPU-Sim uArch: Shader 1 finished CTA #2 (14337,0), 7 CTAs running
GPGPU-Sim uArch: core:  1, cta: 2 initialized @(14338,0)
GPGPU-Sim uArch: Shader 9 finished CTA #5 (14441,0), 7 CTAs running
GPGPU-Sim uArch: core:  9, cta: 5 initialized @(14442,0)
GPGPU-Sim uArch: cycles simulated: 14500  inst.: 4703661 (ipc=324.4) sim_rate=391971 (inst/sec) elapsed = 0:0:00:12 / Fri Jan 16 05:16:59 2015
GPGPU-Sim PTX: 5000000 instructions simulated : ctaid=(139,0,0) tid=(0,52,0)
GPGPU-Sim uArch: Shader 1 finished CTA #6 (14734,0), 7 CTAs running
GPGPU-Sim uArch: core:  1, cta: 6 initialized @(14735,0)
GPGPU-Sim uArch: Shader 4 finished CTA #4 (14748,0), 7 CTAs running
GPGPU-Sim uArch: core:  4, cta: 4 initialized @(14749,0)
GPGPU-Sim uArch: Shader 6 finished CTA #2 (14794,0), 7 CTAs running
GPGPU-Sim uArch: core:  6, cta: 2 initialized @(14795,0)
GPGPU-Sim PTX: 5100000 instructions simulated : ctaid=(138,0,0) tid=(0,16,0)
GPGPU-Sim uArch: Shader 5 finished CTA #1 (14908,0), 7 CTAs running
GPGPU-Sim uArch: core:  5, cta: 1 initialized @(14909,0)
GPGPU-Sim uArch: Shader 5 finished CTA #7 (15020,0), 7 CTAs running
GPGPU-Sim uArch: core:  5, cta: 7 initialized @(15021,0)
GPGPU-Sim PTX: 5200000 instructions simulated : ctaid=(137,0,0) tid=(0,26,0)
GPGPU-Sim uArch: Shader 6 finished CTA #5 (15314,0), 7 CTAs running
GPGPU-Sim uArch: core:  6, cta: 5 initialized @(15315,0)
GPGPU-Sim PTX: 5300000 instructions simulated : ctaid=(173,0,0) tid=(0,55,0)
GPGPU-Sim uArch: Shader 7 finished CTA #7 (15486,0), 7 CTAs running
GPGPU-Sim uArch: core:  7, cta: 7 initialized @(15487,0)
GPGPU-Sim uArch: cycles simulated: 15500  inst.: 5008825 (ipc=323.1) sim_rate=385294 (inst/sec) elapsed = 0:0:00:13 / Fri Jan 16 05:17:00 2015
GPGPU-Sim uArch: Shader 6 finished CTA #0 (15731,0), 7 CTAs running
GPGPU-Sim uArch: core:  6, cta: 0 initialized @(15732,0)
GPGPU-Sim PTX: 5400000 instructions simulated : ctaid=(153,0,0) tid=(0,49,0)
GPGPU-Sim uArch: Shader 3 finished CTA #1 (15897,0), 7 CTAs running
GPGPU-Sim uArch: core:  3, cta: 1 initialized @(15898,0)
GPGPU-Sim PTX: 5500000 instructions simulated : ctaid=(133,0,0) tid=(0,14,0)
GPGPU-Sim uArch: Shader 1 finished CTA #5 (16080,0), 7 CTAs running
GPGPU-Sim uArch: core:  1, cta: 5 initialized @(16081,0)
GPGPU-Sim PTX: 5600000 instructions simulated : ctaid=(103,0,0) tid=(0,9,0)
GPGPU-Sim uArch: Shader 14 finished CTA #0 (16365,0), 7 CTAs running
GPGPU-Sim uArch: core: 14, cta: 0 initialized @(16366,0)
GPGPU-Sim uArch: Shader 5 finished CTA #2 (16446,0), 7 CTAs running
GPGPU-Sim uArch: core:  5, cta: 2 initialized @(16447,0)
GPGPU-Sim uArch: Shader 3 finished CTA #5 (16632,0), 7 CTAs running
GPGPU-Sim uArch: core:  3, cta: 5 initialized @(16633,0)
GPGPU-Sim uArch: Shader 7 finished CTA #6 (16682,0), 7 CTAs running
GPGPU-Sim uArch: core:  7, cta: 6 initialized @(16683,0)
GPGPU-Sim PTX: 5700000 instructions simulated : ctaid=(153,0,0) tid=(0,13,0)
GPGPU-Sim uArch: cycles simulated: 17000  inst.: 5452786 (ipc=320.8) sim_rate=389484 (inst/sec) elapsed = 0:0:00:14 / Fri Jan 16 05:17:01 2015
GPGPU-Sim PTX: 5800000 instructions simulated : ctaid=(178,0,0) tid=(0,42,0)
GPGPU-Sim uArch: Shader 13 finished CTA #2 (17401,0), 7 CTAs running
GPGPU-Sim uArch: core: 13, cta: 2 initialized @(17402,0)
GPGPU-Sim PTX: 5900000 instructions simulated : ctaid=(36,0,0) tid=(0,25,0)
GPGPU-Sim uArch: Shader 12 finished CTA #5 (17428,0), 7 CTAs running
GPGPU-Sim uArch: core: 12, cta: 5 initialized @(17429,0)
GPGPU-Sim uArch: Shader 11 finished CTA #1 (17480,0), 7 CTAs running
GPGPU-Sim uArch: core: 11, cta: 1 initialized @(17481,0)
GPGPU-Sim uArch: Shader 11 finished CTA #5 (17694,0), 7 CTAs running
GPGPU-Sim uArch: core: 11, cta: 5 initialized @(17695,0)
GPGPU-Sim uArch: Shader 12 finished CTA #6 (17734,0), 7 CTAs running
GPGPU-Sim uArch: core: 12, cta: 6 initialized @(17735,0)
GPGPU-Sim PTX: 6000000 instructions simulated : ctaid=(167,0,0) tid=(0,10,0)
GPGPU-Sim uArch: Shader 14 finished CTA #1 (17847,0), 7 CTAs running
GPGPU-Sim uArch: core: 14, cta: 1 initialized @(17848,0)
GPGPU-Sim uArch: Shader 11 finished CTA #2 (17904,0), 7 CTAs running
GPGPU-Sim uArch: core: 11, cta: 2 initialized @(17905,0)
GPGPU-Sim uArch: Shader 1 finished CTA #4 (17967,0), 7 CTAs running
GPGPU-Sim uArch: core:  1, cta: 4 initialized @(17968,0)
GPGPU-Sim uArch: cycles simulated: 18000  inst.: 5696933 (ipc=316.5) sim_rate=379795 (inst/sec) elapsed = 0:0:00:15 / Fri Jan 16 05:17:02 2015
GPGPU-Sim uArch: Shader 6 finished CTA #2 (18083,0), 7 CTAs running
GPGPU-Sim uArch: core:  6, cta: 2 initialized @(18084,0)
GPGPU-Sim uArch: Shader 8 finished CTA #6 (18100,0), 7 CTAs running
GPGPU-Sim uArch: core:  8, cta: 6 initialized @(18101,0)
GPGPU-Sim uArch: Shader 5 finished CTA #1 (18154,0), 7 CTAs running
GPGPU-Sim uArch: core:  5, cta: 1 initialized @(18155,0)
GPGPU-Sim uArch: Shader 6 finished CTA #1 (18187,0), 7 CTAs running
GPGPU-Sim uArch: core:  6, cta: 1 initialized @(18188,0)
GPGPU-Sim PTX: 6100000 instructions simulated : ctaid=(149,0,0) tid=(0,53,0)
GPGPU-Sim uArch: Shader 2 finished CTA #7 (18232,0), 7 CTAs running
GPGPU-Sim uArch: core:  2, cta: 7 initialized @(18233,0)
GPGPU-Sim uArch: Shader 9 finished CTA #5 (18334,0), 7 CTAs running
GPGPU-Sim uArch: core:  9, cta: 5 initialized @(18335,0)
GPGPU-Sim uArch: Shader 5 finished CTA #7 (18416,0), 7 CTAs running
GPGPU-Sim uArch: core:  5, cta: 7 initialized @(18417,0)
GPGPU-Sim uArch: Shader 1 finished CTA #2 (18434,0), 7 CTAs running
GPGPU-Sim uArch: core:  1, cta: 2 initialized @(18435,0)
GPGPU-Sim uArch: Shader 4 finished CTA #7 (18542,0), 7 CTAs running
GPGPU-Sim uArch: core:  4, cta: 7 initialized @(18543,0)
GPGPU-Sim PTX: 6200000 instructions simulated : ctaid=(145,0,0) tid=(0,48,0)
GPGPU-Sim uArch: Shader 5 finished CTA #3 (18795,0), 7 CTAs running
GPGPU-Sim uArch: core:  5, cta: 3 initialized @(18796,0)
GPGPU-Sim uArch: Shader 9 finished CTA #0 (18811,0), 7 CTAs running
GPGPU-Sim uArch: core:  9, cta: 0 initialized @(18812,0)
GPGPU-Sim uArch: Shader 6 finished CTA #5 (18823,0), 7 CTAs running
GPGPU-Sim uArch: core:  6, cta: 5 initialized @(18824,0)
GPGPU-Sim uArch: Shader 3 finished CTA #2 (18875,0), 7 CTAs running
GPGPU-Sim uArch: core:  3, cta: 2 initialized @(18876,0)
GPGPU-Sim PTX: 6300000 instructions simulated : ctaid=(196,0,0) tid=(0,3,0)
GPGPU-Sim uArch: Shader 3 finished CTA #1 (19082,0), 7 CTAs running
GPGPU-Sim uArch: core:  3, cta: 1 initialized @(19083,0)
GPGPU-Sim uArch: Shader 11 finished CTA #6 (19146,0), 7 CTAs running
GPGPU-Sim uArch: core: 11, cta: 6 initialized @(19147,0)
GPGPU-Sim uArch: Shader 7 finished CTA #5 (19178,0), 7 CTAs running
GPGPU-Sim uArch: core:  7, cta: 5 initialized @(19179,0)
GPGPU-Sim PTX: 6400000 instructions simulated : ctaid=(180,0,0) tid=(0,8,0)
GPGPU-Sim uArch: Shader 9 finished CTA #4 (19281,0), 7 CTAs running
GPGPU-Sim uArch: core:  9, cta: 4 initialized @(19282,0)
GPGPU-Sim uArch: Shader 14 finished CTA #5 (19411,0), 7 CTAs running
GPGPU-Sim uArch: core: 14, cta: 5 initialized @(19412,0)
GPGPU-Sim uArch: Shader 1 finished CTA #6 (19415,0), 7 CTAs running
GPGPU-Sim uArch: core:  1, cta: 6 initialized @(19416,0)
GPGPU-Sim uArch: cycles simulated: 19500  inst.: 6100798 (ipc=312.9) sim_rate=381299 (inst/sec) elapsed = 0:0:00:16 / Fri Jan 16 05:17:03 2015
GPGPU-Sim uArch: Shader 14 finished CTA #6 (19518,0), 7 CTAs running
GPGPU-Sim uArch: core: 14, cta: 6 initialized @(19519,0)
GPGPU-Sim uArch: Shader 13 finished CTA #6 (19548,0), 7 CTAs running
GPGPU-Sim uArch: core: 13, cta: 6 initialized @(19549,0)
GPGPU-Sim PTX: 6500000 instructions simulated : ctaid=(192,0,0) tid=(0,19,0)
GPGPU-Sim uArch: Shader 11 finished CTA #4 (19578,0), 7 CTAs running
GPGPU-Sim uArch: core: 11, cta: 4 initialized @(19579,0)
GPGPU-Sim uArch: Shader 6 finished CTA #0 (19614,0), 7 CTAs running
GPGPU-Sim uArch: core:  6, cta: 0 initialized @(19615,0)
GPGPU-Sim uArch: Shader 4 finished CTA #4 (19713,0), 7 CTAs running
GPGPU-Sim uArch: core:  4, cta: 4 initialized @(19714,0)
GPGPU-Sim uArch: Shader 13 finished CTA #4 (19746,0), 7 CTAs running
GPGPU-Sim uArch: core: 13, cta: 4 initialized @(19747,0)
GPGPU-Sim uArch: Shader 5 finished CTA #2 (19871,0), 7 CTAs running
GPGPU-Sim uArch: core:  5, cta: 2 initialized @(19872,0)
GPGPU-Sim PTX: 6600000 instructions simulated : ctaid=(181,0,0) tid=(0,19,0)
GPGPU-Sim uArch: Shader 14 finished CTA #0 (19881,0), 7 CTAs running
GPGPU-Sim uArch: core: 14, cta: 0 initialized @(19882,0)
GPGPU-Sim uArch: Shader 7 finished CTA #7 (19916,0), 7 CTAs running
GPGPU-Sim uArch: core:  7, cta: 7 initialized @(19917,0)
GPGPU-Sim uArch: Shader 3 finished CTA #5 (19932,0), 7 CTAs running
GPGPU-Sim uArch: core:  3, cta: 5 initialized @(19933,0)
GPGPU-Sim uArch: Shader 8 finished CTA #2 (20035,0), 7 CTAs running
GPGPU-Sim uArch: core:  8, cta: 2 initialized @(20036,0)
GPGPU-Sim PTX: 6700000 instructions simulated : ctaid=(208,0,0) tid=(0,49,0)
GPGPU-Sim PTX: 6800000 instructions simulated : ctaid=(195,0,0) tid=(0,24,0)
GPGPU-Sim uArch: cycles simulated: 20500  inst.: 6414919 (ipc=312.9) sim_rate=377348 (inst/sec) elapsed = 0:0:00:17 / Fri Jan 16 05:17:04 2015
GPGPU-Sim uArch: Shader 2 finished CTA #6 (20563,0), 7 CTAs running
GPGPU-Sim uArch: core:  2, cta: 6 initialized @(20564,0)
GPGPU-Sim uArch: Shader 3 finished CTA #7 (20612,0), 7 CTAs running
GPGPU-Sim uArch: core:  3, cta: 7 initialized @(20613,0)
GPGPU-Sim uArch: Shader 13 finished CTA #2 (20632,0), 7 CTAs running
GPGPU-Sim uArch: core: 13, cta: 2 initialized @(20633,0)
GPGPU-Sim uArch: Shader 1 finished CTA #5 (20638,0), 7 CTAs running
GPGPU-Sim uArch: core:  1, cta: 5 initialized @(20639,0)
GPGPU-Sim uArch: Shader 11 finished CTA #1 (20666,0), 7 CTAs running
GPGPU-Sim uArch: core: 11, cta: 1 initialized @(20667,0)
GPGPU-Sim uArch: Shader 12 finished CTA #1 (20689,0), 7 CTAs running
GPGPU-Sim uArch: core: 12, cta: 1 initialized @(20690,0)
GPGPU-Sim PTX: 6900000 instructions simulated : ctaid=(150,0,0) tid=(0,60,0)
GPGPU-Sim uArch: Shader 12 finished CTA #5 (20788,0), 7 CTAs running
GPGPU-Sim uArch: core: 12, cta: 5 initialized @(20789,0)
GPGPU-Sim uArch: Shader 6 finished CTA #4 (20838,0), 7 CTAs running
GPGPU-Sim uArch: core:  6, cta: 4 initialized @(20839,0)
GPGPU-Sim uArch: Shader 10 finished CTA #2 (20855,0), 7 CTAs running
GPGPU-Sim uArch: core: 10, cta: 2 initialized @(20856,0)
GPGPU-Sim uArch: Shader 6 finished CTA #3 (20944,0), 7 CTAs running
GPGPU-Sim uArch: core:  6, cta: 3 initialized @(20945,0)
GPGPU-Sim PTX: 7000000 instructions simulated : ctaid=(229,0,0) tid=(0,1,0)
GPGPU-Sim uArch: Shader 4 finished CTA #1 (21091,0), 7 CTAs running
GPGPU-Sim uArch: core:  4, cta: 1 initialized @(21092,0)
GPGPU-Sim uArch: Shader 9 finished CTA #5 (21125,0), 7 CTAs running
GPGPU-Sim uArch: core:  9, cta: 5 initialized @(21126,0)
GPGPU-Sim uArch: Shader 8 finished CTA #6 (21150,0), 7 CTAs running
GPGPU-Sim uArch: core:  8, cta: 6 initialized @(21151,0)
GPGPU-Sim uArch: Shader 14 finished CTA #1 (21169,0), 7 CTAs running
GPGPU-Sim uArch: core: 14, cta: 1 initialized @(21170,0)
GPGPU-Sim uArch: Shader 12 finished CTA #6 (21221,0), 7 CTAs running
GPGPU-Sim uArch: core: 12, cta: 6 initialized @(21222,0)
GPGPU-Sim uArch: Shader 10 finished CTA #1 (21260,0), 7 CTAs running
GPGPU-Sim uArch: core: 10, cta: 1 initialized @(21261,0)
GPGPU-Sim uArch: Shader 11 finished CTA #5 (21275,0), 7 CTAs running
GPGPU-Sim uArch: core: 11, cta: 5 initialized @(21276,0)
GPGPU-Sim uArch: Shader 5 finished CTA #1 (21312,0), 7 CTAs running
GPGPU-Sim uArch: core:  5, cta: 1 initialized @(21313,0)
GPGPU-Sim uArch: Shader 7 finished CTA #6 (21321,0), 7 CTAs running
GPGPU-Sim uArch: core:  7, cta: 6 initialized @(21322,0)
GPGPU-Sim uArch: Shader 6 finished CTA #2 (21355,0), 7 CTAs running
GPGPU-Sim uArch: core:  6, cta: 2 initialized @(21356,0)
GPGPU-Sim PTX: 7100000 instructions simulated : ctaid=(223,0,0) tid=(0,32,0)
GPGPU-Sim uArch: cycles simulated: 21500  inst.: 6730146 (ipc=313.0) sim_rate=373897 (inst/sec) elapsed = 0:0:00:18 / Fri Jan 16 05:17:05 2015
GPGPU-Sim uArch: Shader 2 finished CTA #4 (21542,0), 7 CTAs running
GPGPU-Sim uArch: core:  2, cta: 4 initialized @(21543,0)
GPGPU-Sim uArch: Shader 4 finished CTA #7 (21545,0), 7 CTAs running
GPGPU-Sim uArch: core:  4, cta: 7 initialized @(21546,0)
GPGPU-Sim uArch: Shader 8 finished CTA #1 (21579,0), 7 CTAs running
GPGPU-Sim uArch: core:  8, cta: 1 initialized @(21580,0)
GPGPU-Sim uArch: Shader 11 finished CTA #2 (21619,0), 7 CTAs running
GPGPU-Sim uArch: core: 11, cta: 2 initialized @(21620,0)
GPGPU-Sim PTX: 7200000 instructions simulated : ctaid=(206,0,0) tid=(0,20,0)
GPGPU-Sim uArch: Shader 4 finished CTA #2 (21658,0), 7 CTAs running
GPGPU-Sim uArch: core:  4, cta: 2 initialized @(21659,0)
GPGPU-Sim uArch: Shader 5 finished CTA #7 (21667,0), 7 CTAs running
GPGPU-Sim uArch: core:  5, cta: 7 initialized @(21668,0)
GPGPU-Sim uArch: Shader 1 finished CTA #4 (21693,0), 7 CTAs running
GPGPU-Sim uArch: core:  1, cta: 4 initialized @(21694,0)
GPGPU-Sim uArch: Shader 10 finished CTA #0 (21754,0), 7 CTAs running
GPGPU-Sim uArch: core: 10, cta: 0 initialized @(21755,0)
GPGPU-Sim uArch: Shader 9 finished CTA #0 (21760,0), 7 CTAs running
GPGPU-Sim uArch: core:  9, cta: 0 initialized @(21761,0)
GPGPU-Sim uArch: Shader 1 finished CTA #0 (21888,0), 7 CTAs running
GPGPU-Sim uArch: core:  1, cta: 0 initialized @(21889,0)
GPGPU-Sim uArch: Shader 3 finished CTA #2 (21894,0), 7 CTAs running
GPGPU-Sim uArch: core:  3, cta: 2 initialized @(21895,0)
GPGPU-Sim uArch: Shader 6 finished CTA #1 (21900,0), 7 CTAs running
GPGPU-Sim uArch: core:  6, cta: 1 initialized @(21901,0)
GPGPU-Sim PTX: 7300000 instructions simulated : ctaid=(216,0,0) tid=(0,26,0)
GPGPU-Sim PTX: 7400000 instructions simulated : ctaid=(248,0,0) tid=(0,40,0)
GPGPU-Sim uArch: Shader 9 finished CTA #4 (22312,0), 7 CTAs running
GPGPU-Sim uArch: core:  9, cta: 4 initialized @(22313,0)
GPGPU-Sim uArch: Shader 3 finished CTA #1 (22313,0), 7 CTAs running
GPGPU-Sim uArch: core:  3, cta: 1 initialized @(22314,0)
GPGPU-Sim uArch: Shader 5 finished CTA #3 (22330,0), 7 CTAs running
GPGPU-Sim uArch: core:  5, cta: 3 initialized @(22331,0)
GPGPU-Sim PTX: 7500000 instructions simulated : ctaid=(228,0,0) tid=(0,55,0)
GPGPU-Sim uArch: Shader 13 finished CTA #7 (22468,0), 7 CTAs running
GPGPU-Sim uArch: core: 13, cta: 7 initialized @(22469,0)
GPGPU-Sim uArch: Shader 14 finished CTA #5 (22485,0), 7 CTAs running
GPGPU-Sim uArch: core: 14, cta: 5 initialized @(22486,0)
GPGPU-Sim uArch: cycles simulated: 22500  inst.: 7085719 (ipc=314.9) sim_rate=372932 (inst/sec) elapsed = 0:0:00:19 / Fri Jan 16 05:17:06 2015
GPGPU-Sim uArch: Shader 1 finished CTA #2 (22547,0), 7 CTAs running
GPGPU-Sim uArch: core:  1, cta: 2 initialized @(22548,0)
GPGPU-Sim uArch: Shader 13 finished CTA #6 (22579,0), 7 CTAs running
GPGPU-Sim uArch: core: 13, cta: 6 initialized @(22580,0)
GPGPU-Sim uArch: Shader 9 finished CTA #7 (22628,0), 7 CTAs running
GPGPU-Sim uArch: core:  9, cta: 7 initialized @(22629,0)
GPGPU-Sim uArch: Shader 6 finished CTA #5 (22692,0), 7 CTAs running
GPGPU-Sim uArch: core:  6, cta: 5 initialized @(22693,0)
GPGPU-Sim PTX: 7600000 instructions simulated : ctaid=(242,0,0) tid=(0,36,0)
GPGPU-Sim uArch: Shader 4 finished CTA #4 (22717,0), 7 CTAs running
GPGPU-Sim uArch: core:  4, cta: 4 initialized @(22718,0)
GPGPU-Sim uArch: Shader 14 finished CTA #6 (22722,0), 7 CTAs running
GPGPU-Sim uArch: core: 14, cta: 6 initialized @(22723,0)
GPGPU-Sim uArch: Shader 7 finished CTA #0 (22926,0), 7 CTAs running
GPGPU-Sim uArch: core:  7, cta: 0 initialized @(22927,0)
GPGPU-Sim uArch: Shader 13 finished CTA #4 (22947,0), 7 CTAs running
GPGPU-Sim uArch: core: 13, cta: 4 initialized @(22948,0)
GPGPU-Sim PTX: 7700000 instructions simulated : ctaid=(231,0,0) tid=(0,19,0)
GPGPU-Sim uArch: Shader 13 finished CTA #1 (23040,0), 7 CTAs running
GPGPU-Sim uArch: core: 13, cta: 1 initialized @(23041,0)
GPGPU-Sim uArch: Shader 7 finished CTA #5 (23044,0), 7 CTAs running
GPGPU-Sim uArch: core:  7, cta: 5 initialized @(23045,0)
GPGPU-Sim uArch: Shader 2 finished CTA #7 (23059,0), 7 CTAs running
GPGPU-Sim uArch: core:  2, cta: 7 initialized @(23060,0)
GPGPU-Sim uArch: Shader 3 finished CTA #5 (23071,0), 7 CTAs running
GPGPU-Sim uArch: core:  3, cta: 5 initialized @(23072,0)
GPGPU-Sim uArch: Shader 6 finished CTA #0 (23139,0), 7 CTAs running
GPGPU-Sim uArch: core:  6, cta: 0 initialized @(23140,0)
GPGPU-Sim uArch: Shader 11 finished CTA #6 (23181,0), 7 CTAs running
GPGPU-Sim uArch: core: 11, cta: 6 initialized @(23182,0)
GPGPU-Sim PTX: 7800000 instructions simulated : ctaid=(220,0,0) tid=(0,9,0)
GPGPU-Sim uArch: Shader 8 finished CTA #2 (23222,0), 7 CTAs running
GPGPU-Sim uArch: core:  8, cta: 2 initialized @(23223,0)
GPGPU-Sim uArch: Shader 4 finished CTA #6 (23234,0), 7 CTAs running
GPGPU-Sim uArch: core:  4, cta: 6 initialized @(23235,0)
GPGPU-Sim uArch: Shader 10 finished CTA #4 (23251,0), 7 CTAs running
GPGPU-Sim uArch: core: 10, cta: 4 initialized @(23252,0)
GPGPU-Sim uArch: Shader 14 finished CTA #0 (23264,0), 7 CTAs running
GPGPU-Sim uArch: core: 14, cta: 0 initialized @(23265,0)
GPGPU-Sim uArch: Shader 5 finished CTA #2 (23361,0), 7 CTAs running
GPGPU-Sim uArch: core:  5, cta: 2 initialized @(23362,0)
GPGPU-Sim uArch: Shader 1 finished CTA #6 (23395,0), 7 CTAs running
GPGPU-Sim uArch: core:  1, cta: 6 initialized @(23396,0)
GPGPU-Sim PTX: 7900000 instructions simulated : ctaid=(253,0,0) tid=(0,6,0)
GPGPU-Sim uArch: cycles simulated: 23500  inst.: 7465589 (ipc=317.7) sim_rate=373279 (inst/sec) elapsed = 0:0:00:20 / Fri Jan 16 05:17:07 2015
GPGPU-Sim uArch: Shader 8 finished CTA #0 (23550,0), 7 CTAs running
GPGPU-Sim uArch: core:  8, cta: 0 initialized @(23551,0)
GPGPU-Sim uArch: Shader 6 finished CTA #6 (23557,0), 7 CTAs running
GPGPU-Sim uArch: core:  6, cta: 6 initialized @(23558,0)
GPGPU-Sim uArch: Shader 7 finished CTA #1 (23639,0), 7 CTAs running
GPGPU-Sim uArch: core:  7, cta: 1 initialized @(23640,0)
GPGPU-Sim uArch: Shader 8 finished CTA #5 (23646,0), 7 CTAs running
GPGPU-Sim uArch: Shader 12 finished CTA #1 (23646,0), 7 CTAs running
GPGPU-Sim uArch: core:  8, cta: 5 initialized @(23647,0)
GPGPU-Sim uArch: core: 12, cta: 1 initialized @(23647,0)
GPGPU-Sim uArch: Shader 9 finished CTA #3 (23658,0), 7 CTAs running
GPGPU-Sim uArch: core:  9, cta: 3 initialized @(23659,0)
GPGPU-Sim PTX: 8000000 instructions simulated : ctaid=(9,1,0) tid=(0,35,0)
GPGPU-Sim uArch: Shader 10 finished CTA #5 (23696,0), 7 CTAs running
GPGPU-Sim uArch: core: 10, cta: 5 initialized @(23697,0)
GPGPU-Sim uArch: Shader 11 finished CTA #4 (23792,0), 7 CTAs running
GPGPU-Sim uArch: core: 11, cta: 4 initialized @(23793,0)
GPGPU-Sim uArch: Shader 1 finished CTA #1 (23810,0), 7 CTAs running
GPGPU-Sim uArch: core:  1, cta: 1 initialized @(23811,0)
GPGPU-Sim uArch: Shader 13 finished CTA #5 (23868,0), 7 CTAs running
GPGPU-Sim uArch: core: 13, cta: 5 initialized @(23869,0)
GPGPU-Sim PTX: 8100000 instructions simulated : ctaid=(241,0,0) tid=(0,16,0)
GPGPU-Sim uArch: Shader 3 finished CTA #7 (23921,0), 7 CTAs running
GPGPU-Sim uArch: core:  3, cta: 7 initialized @(23922,0)
GPGPU-Sim uArch: Shader 6 finished CTA #4 (23970,0), 7 CTAs running
GPGPU-Sim uArch: core:  6, cta: 4 initialized @(23971,0)
GPGPU-Sim uArch: Shader 13 finished CTA #2 (23987,0), 7 CTAs running
GPGPU-Sim uArch: core: 13, cta: 2 initialized @(23988,0)
GPGPU-Sim uArch: Shader 7 finished CTA #7 (23988,0), 7 CTAs running
GPGPU-Sim uArch: core:  7, cta: 7 initialized @(23989,0)
GPGPU-Sim uArch: Shader 1 finished CTA #5 (24023,0), 7 CTAs running
GPGPU-Sim uArch: core:  1, cta: 5 initialized @(24024,0)
GPGPU-Sim uArch: Shader 10 finished CTA #2 (24027,0), 7 CTAs running
GPGPU-Sim uArch: core: 10, cta: 2 initialized @(24028,0)
GPGPU-Sim uArch: Shader 12 finished CTA #5 (24068,0), 7 CTAs running
GPGPU-Sim uArch: core: 12, cta: 5 initialized @(24069,0)
GPGPU-Sim PTX: 8200000 instructions simulated : ctaid=(247,0,0) tid=(0,8,0)
GPGPU-Sim uArch: Shader 9 finished CTA #5 (24197,0), 7 CTAs running
GPGPU-Sim uArch: core:  9, cta: 5 initialized @(24198,0)
GPGPU-Sim uArch: Shader 4 finished CTA #1 (24261,0), 7 CTAs running
GPGPU-Sim uArch: core:  4, cta: 1 initialized @(24262,0)
GPGPU-Sim uArch: Shader 6 finished CTA #3 (24264,0), 7 CTAs running
GPGPU-Sim uArch: core:  6, cta: 3 initialized @(24265,0)
GPGPU-Sim uArch: Shader 11 finished CTA #7 (24316,0), 7 CTAs running
GPGPU-Sim uArch: core: 11, cta: 7 initialized @(24317,0)
GPGPU-Sim uArch: Shader 14 finished CTA #1 (24338,0), 7 CTAs running
GPGPU-Sim uArch: core: 14, cta: 1 initialized @(24339,0)
GPGPU-Sim PTX: 8300000 instructions simulated : ctaid=(3,1,0) tid=(0,50,0)
GPGPU-Sim uArch: Shader 8 finished CTA #6 (24479,0), 7 CTAs running
GPGPU-Sim uArch: core:  8, cta: 6 initialized @(24480,0)
GPGPU-Sim uArch: cycles simulated: 24500  inst.: 7863758 (ipc=321.0) sim_rate=374464 (inst/sec) elapsed = 0:0:00:21 / Fri Jan 16 05:17:08 2015
GPGPU-Sim uArch: Shader 5 finished CTA #1 (24529,0), 7 CTAs running
GPGPU-Sim uArch: core:  5, cta: 1 initialized @(24530,0)
GPGPU-Sim uArch: Shader 2 finished CTA #6 (24578,0), 7 CTAs running
GPGPU-Sim uArch: core:  2, cta: 6 initialized @(24579,0)
GPGPU-Sim uArch: Shader 12 finished CTA #6 (24595,0), 7 CTAs running
GPGPU-Sim uArch: core: 12, cta: 6 initialized @(24596,0)
GPGPU-Sim uArch: Shader 13 finished CTA #0 (24615,0), 7 CTAs running
GPGPU-Sim uArch: core: 13, cta: 0 initialized @(24616,0)
GPGPU-Sim PTX: 8400000 instructions simulated : ctaid=(28,1,0) tid=(0,30,0)
GPGPU-Sim uArch: Shader 3 finished CTA #0 (24650,0), 7 CTAs running
GPGPU-Sim uArch: core:  3, cta: 0 initialized @(24651,0)
GPGPU-Sim uArch: Shader 6 finished CTA #2 (24678,0), 7 CTAs running
GPGPU-Sim uArch: core:  6, cta: 2 initialized @(24679,0)
GPGPU-Sim uArch: Shader 2 finished CTA #2 (24689,0), 7 CTAs running
GPGPU-Sim uArch: core:  2, cta: 2 initialized @(24690,0)
GPGPU-Sim uArch: Shader 6 finished CTA #7 (24778,0), 7 CTAs running
GPGPU-Sim uArch: core:  6, cta: 7 initialized @(24779,0)
GPGPU-Sim uArch: Shader 11 finished CTA #1 (24813,0), 7 CTAs running
GPGPU-Sim uArch: core: 11, cta: 1 initialized @(24814,0)
GPGPU-Sim uArch: Shader 10 finished CTA #1 (24844,0), 7 CTAs running
GPGPU-Sim uArch: core: 10, cta: 1 initialized @(24845,0)
GPGPU-Sim PTX: 8500000 instructions simulated : ctaid=(15,1,0) tid=(0,24,0)
GPGPU-Sim uArch: Shader 7 finished CTA #6 (24900,0), 7 CTAs running
GPGPU-Sim uArch: core:  7, cta: 6 initialized @(24901,0)
GPGPU-Sim uArch: Shader 4 finished CTA #7 (24942,0), 7 CTAs running
GPGPU-Sim uArch: core:  4, cta: 7 initialized @(24943,0)
GPGPU-Sim uArch: Shader 3 finished CTA #2 (24995,0), 7 CTAs running
GPGPU-Sim uArch: core:  3, cta: 2 initialized @(24996,0)
GPGPU-Sim uArch: Shader 0 finished CTA #6 (25019,0), 7 CTAs running
GPGPU-Sim uArch: core:  0, cta: 6 initialized @(25020,0)
GPGPU-Sim uArch: Shader 1 finished CTA #4 (25038,0), 7 CTAs running
GPGPU-Sim uArch: core:  1, cta: 4 initialized @(25039,0)
GPGPU-Sim uArch: Shader 9 finished CTA #0 (25051,0), 7 CTAs running
GPGPU-Sim uArch: core:  9, cta: 0 initialized @(25052,0)
GPGPU-Sim PTX: 8600000 instructions simulated : ctaid=(20,1,0) tid=(0,56,0)
GPGPU-Sim uArch: Shader 8 finished CTA #1 (25106,0), 7 CTAs running
GPGPU-Sim uArch: core:  8, cta: 1 initialized @(25107,0)
GPGPU-Sim uArch: Shader 0 finished CTA #5 (25136,0), 7 CTAs running
GPGPU-Sim uArch: core:  0, cta: 5 initialized @(25137,0)
GPGPU-Sim uArch: Shader 14 finished CTA #4 (25149,0), 7 CTAs running
GPGPU-Sim uArch: core: 14, cta: 4 initialized @(25150,0)
GPGPU-Sim uArch: Shader 4 finished CTA #2 (25166,0), 7 CTAs running
GPGPU-Sim uArch: core:  4, cta: 2 initialized @(25167,0)
GPGPU-Sim uArch: Shader 5 finished CTA #7 (25189,0), 7 CTAs running
GPGPU-Sim uArch: core:  5, cta: 7 initialized @(25190,0)
GPGPU-Sim PTX: 8700000 instructions simulated : ctaid=(24,1,0) tid=(0,6,0)
GPGPU-Sim uArch: Shader 14 finished CTA #7 (25347,0), 7 CTAs running
GPGPU-Sim uArch: core: 14, cta: 7 initialized @(25348,0)
GPGPU-Sim uArch: Shader 11 finished CTA #5 (25385,0), 7 CTAs running
GPGPU-Sim uArch: core: 11, cta: 5 initialized @(25386,0)
GPGPU-Sim uArch: Shader 6 finished CTA #1 (25452,0), 7 CTAs running
GPGPU-Sim uArch: core:  6, cta: 1 initialized @(25453,0)
GPGPU-Sim PTX: 8800000 instructions simulated : ctaid=(59,1,0) tid=(0,54,0)
GPGPU-Sim uArch: cycles simulated: 25500  inst.: 8296747 (ipc=325.4) sim_rate=377124 (inst/sec) elapsed = 0:0:00:22 / Fri Jan 16 05:17:09 2015
GPGPU-Sim uArch: Shader 1 finished CTA #0 (25569,0), 7 CTAs running
GPGPU-Sim uArch: core:  1, cta: 0 initialized @(25570,0)
GPGPU-Sim uArch: Shader 3 finished CTA #1 (25631,0), 7 CTAs running
GPGPU-Sim uArch: core:  3, cta: 1 initialized @(25632,0)
GPGPU-Sim uArch: Shader 10 finished CTA #0 (25666,0), 7 CTAs running
GPGPU-Sim uArch: core: 10, cta: 0 initialized @(25667,0)
GPGPU-Sim PTX: 8900000 instructions simulated : ctaid=(11,1,0) tid=(0,8,0)
GPGPU-Sim uArch: Shader 2 finished CTA #4 (25802,0), 7 CTAs running
GPGPU-Sim uArch: core:  2, cta: 4 initialized @(25803,0)
GPGPU-Sim uArch: Shader 9 finished CTA #4 (25814,0), 7 CTAs running
GPGPU-Sim uArch: core:  9, cta: 4 initialized @(25815,0)
GPGPU-Sim PTX: 9000000 instructions simulated : ctaid=(50,1,0) tid=(0,58,0)
GPGPU-Sim uArch: Shader 11 finished CTA #2 (26048,0), 7 CTAs running
GPGPU-Sim uArch: core: 11, cta: 2 initialized @(26049,0)
GPGPU-Sim PTX: 9100000 instructions simulated : ctaid=(70,1,0) tid=(0,49,0)
GPGPU-Sim uArch: Shader 5 finished CTA #3 (26167,0), 7 CTAs running
GPGPU-Sim uArch: core:  5, cta: 3 initialized @(26168,0)
GPGPU-Sim PTX: 9200000 instructions simulated : ctaid=(0,1,0) tid=(0,51,0)
GPGPU-Sim uArch: Shader 14 finished CTA #3 (26394,0), 7 CTAs running
GPGPU-Sim uArch: core: 14, cta: 3 initialized @(26395,0)
GPGPU-Sim PTX: 9300000 instructions simulated : ctaid=(6,1,0) tid=(0,59,0)
GPGPU-Sim uArch: cycles simulated: 26500  inst.: 8777895 (ipc=331.2) sim_rate=381647 (inst/sec) elapsed = 0:0:00:23 / Fri Jan 16 05:17:10 2015
GPGPU-Sim uArch: Shader 0 finished CTA #0 (26570,0), 7 CTAs running
GPGPU-Sim uArch: core:  0, cta: 0 initialized @(26571,0)
GPGPU-Sim uArch: Shader 3 finished CTA #6 (26670,0), 7 CTAs running
GPGPU-Sim uArch: core:  3, cta: 6 initialized @(26671,0)
GPGPU-Sim PTX: 9400000 instructions simulated : ctaid=(29,1,0) tid=(0,61,0)
GPGPU-Sim PTX: 9500000 instructions simulated : ctaid=(42,1,0) tid=(0,37,0)
GPGPU-Sim uArch: Shader 12 finished CTA #7 (26957,0), 7 CTAs running
GPGPU-Sim uArch: core: 12, cta: 7 initialized @(26958,0)
GPGPU-Sim uArch: Shader 12 finished CTA #4 (27071,0), 7 CTAs running
GPGPU-Sim uArch: core: 12, cta: 4 initialized @(27072,0)
GPGPU-Sim PTX: 9600000 instructions simulated : ctaid=(73,1,0) tid=(0,10,0)
GPGPU-Sim uArch: Shader 9 finished CTA #1 (27192,0), 7 CTAs running
GPGPU-Sim uArch: core:  9, cta: 1 initialized @(27193,0)
GPGPU-Sim uArch: Shader 8 finished CTA #3 (27239,0), 7 CTAs running
GPGPU-Sim uArch: core:  8, cta: 3 initialized @(27240,0)
GPGPU-Sim PTX: 9700000 instructions simulated : ctaid=(22,1,0) tid=(0,7,0)
GPGPU-Sim uArch: Shader 0 finished CTA #1 (27401,0), 7 CTAs running
GPGPU-Sim uArch: core:  0, cta: 1 initialized @(27402,0)
GPGPU-Sim uArch: cycles simulated: 27500  inst.: 9213520 (ipc=335.0) sim_rate=383896 (inst/sec) elapsed = 0:0:00:24 / Fri Jan 16 05:17:11 2015
GPGPU-Sim PTX: 9800000 instructions simulated : ctaid=(51,1,0) tid=(0,34,0)
GPGPU-Sim uArch: Shader 0 finished CTA #2 (27638,0), 7 CTAs running
GPGPU-Sim uArch: core:  0, cta: 2 initialized @(27639,0)
GPGPU-Sim PTX: 9900000 instructions simulated : ctaid=(59,1,0) tid=(0,49,0)
GPGPU-Sim uArch: Shader 11 finished CTA #0 (27851,0), 7 CTAs running
GPGPU-Sim uArch: core: 11, cta: 0 initialized @(27852,0)
GPGPU-Sim PTX: 10000000 instructions simulated : ctaid=(74,1,0) tid=(0,52,0)
GPGPU-Sim uArch: Shader 0 finished CTA #7 (28052,0), 7 CTAs running
GPGPU-Sim uArch: core:  0, cta: 7 initialized @(28053,0)
GPGPU-Sim PTX: 10100000 instructions simulated : ctaid=(56,1,0) tid=(0,31,0)
GPGPU-Sim PTX: 10200000 instructions simulated : ctaid=(74,1,0) tid=(0,17,0)
GPGPU-Sim uArch: Shader 2 finished CTA #0 (28633,0), 7 CTAs running
GPGPU-Sim uArch: core:  2, cta: 0 initialized @(28634,0)
GPGPU-Sim PTX: 10300000 instructions simulated : ctaid=(59,1,0) tid=(0,63,0)
GPGPU-Sim uArch: Shader 7 finished CTA #2 (28703,0), 7 CTAs running
GPGPU-Sim uArch: core:  7, cta: 2 initialized @(28704,0)
GPGPU-Sim uArch: Shader 5 finished CTA #0 (28792,0), 7 CTAs running
GPGPU-Sim uArch: core:  5, cta: 0 initialized @(28793,0)
GPGPU-Sim PTX: 10400000 instructions simulated : ctaid=(47,1,0) tid=(0,23,0)
GPGPU-Sim uArch: Shader 4 finished CTA #0 (28923,0), 7 CTAs running
GPGPU-Sim uArch: core:  4, cta: 0 initialized @(28924,0)
GPGPU-Sim uArch: cycles simulated: 29000  inst.: 9834346 (ipc=339.1) sim_rate=393373 (inst/sec) elapsed = 0:0:00:25 / Fri Jan 16 05:17:12 2015
GPGPU-Sim PTX: 10500000 instructions simulated : ctaid=(70,1,0) tid=(0,8,0)
GPGPU-Sim PTX: 10600000 instructions simulated : ctaid=(83,1,0) tid=(0,55,0)
GPGPU-Sim PTX: 10700000 instructions simulated : ctaid=(85,1,0) tid=(0,37,0)
GPGPU-Sim uArch: Shader 14 finished CTA #2 (29655,0), 7 CTAs running
GPGPU-Sim uArch: core: 14, cta: 2 initialized @(29656,0)
GPGPU-Sim uArch: Shader 5 finished CTA #4 (29685,0), 7 CTAs running
GPGPU-Sim uArch: core:  5, cta: 4 initialized @(29686,0)
GPGPU-Sim PTX: 10800000 instructions simulated : ctaid=(82,1,0) tid=(0,10,0)
GPGPU-Sim uArch: Shader 3 finished CTA #4 (29911,0), 7 CTAs running
GPGPU-Sim uArch: core:  3, cta: 4 initialized @(29912,0)
GPGPU-Sim uArch: cycles simulated: 30000  inst.: 10207252 (ipc=340.2) sim_rate=392586 (inst/sec) elapsed = 0:0:00:26 / Fri Jan 16 05:17:13 2015
GPGPU-Sim uArch: Shader 7 finished CTA #3 (30088,0), 7 CTAs running
GPGPU-Sim uArch: core:  7, cta: 3 initialized @(30089,0)
GPGPU-Sim uArch: Shader 12 finished CTA #0 (30103,0), 7 CTAs running
GPGPU-Sim uArch: core: 12, cta: 0 initialized @(30104,0)
GPGPU-Sim PTX: 10900000 instructions simulated : ctaid=(69,1,0) tid=(0,62,0)
GPGPU-Sim uArch: Shader 9 finished CTA #6 (30361,0), 7 CTAs running
GPGPU-Sim uArch: core:  9, cta: 6 initialized @(30362,0)
GPGPU-Sim PTX: 11000000 instructions simulated : ctaid=(68,1,0) tid=(0,53,0)
GPGPU-Sim uArch: Shader 5 finished CTA #6 (30449,0), 7 CTAs running
GPGPU-Sim uArch: core:  5, cta: 6 initialized @(30450,0)
GPGPU-Sim uArch: Shader 10 finished CTA #7 (30653,0), 7 CTAs running
GPGPU-Sim uArch: core: 10, cta: 7 initialized @(30654,0)
GPGPU-Sim PTX: 11100000 instructions simulated : ctaid=(81,1,0) tid=(0,41,0)
GPGPU-Sim uArch: Shader 10 finished CTA #6 (30896,0), 7 CTAs running
GPGPU-Sim uArch: core: 10, cta: 6 initialized @(30897,0)
GPGPU-Sim PTX: 11200000 instructions simulated : ctaid=(58,1,0) tid=(0,14,0)
GPGPU-Sim uArch: cycles simulated: 31000  inst.: 10555001 (ipc=340.5) sim_rate=390925 (inst/sec) elapsed = 0:0:00:27 / Fri Jan 16 05:17:14 2015
GPGPU-Sim uArch: Shader 2 finished CTA #5 (31127,0), 7 CTAs running
GPGPU-Sim uArch: core:  2, cta: 5 initialized @(31128,0)
GPGPU-Sim uArch: Shader 12 finished CTA #2 (31251,0), 7 CTAs running
GPGPU-Sim uArch: core: 12, cta: 2 initialized @(31252,0)
GPGPU-Sim PTX: 11300000 instructions simulated : ctaid=(83,1,0) tid=(0,55,0)
GPGPU-Sim uArch: Shader 8 finished CTA #7 (31312,0), 7 CTAs running
GPGPU-Sim uArch: core:  8, cta: 7 initialized @(31313,0)
GPGPU-Sim uArch: Shader 5 finished CTA #5 (31346,0), 7 CTAs running
GPGPU-Sim uArch: core:  5, cta: 5 initialized @(31347,0)
GPGPU-Sim uArch: Shader 13 finished CTA #7 (31521,0), 7 CTAs running
GPGPU-Sim uArch: core: 13, cta: 7 initialized @(31522,0)
GPGPU-Sim PTX: 11400000 instructions simulated : ctaid=(83,1,0) tid=(0,45,0)
GPGPU-Sim PTX: 11500000 instructions simulated : ctaid=(54,1,0) tid=(0,39,0)
GPGPU-Sim uArch: Shader 13 finished CTA #3 (31839,0), 7 CTAs running
GPGPU-Sim uArch: core: 13, cta: 3 initialized @(31840,0)
GPGPU-Sim uArch: cycles simulated: 32000  inst.: 10888237 (ipc=340.3) sim_rate=388865 (inst/sec) elapsed = 0:0:00:28 / Fri Jan 16 05:17:15 2015
GPGPU-Sim uArch: Shader 11 finished CTA #3 (32028,0), 7 CTAs running
GPGPU-Sim uArch: core: 11, cta: 3 initialized @(32029,0)
GPGPU-Sim PTX: 11600000 instructions simulated : ctaid=(71,1,0) tid=(0,20,0)
GPGPU-Sim uArch: Shader 0 finished CTA #3 (32248,0), 7 CTAs running
GPGPU-Sim uArch: core:  0, cta: 3 initialized @(32249,0)
GPGPU-Sim PTX: 11700000 instructions simulated : ctaid=(16,1,0) tid=(0,17,0)
GPGPU-Sim uArch: Shader 1 finished CTA #5 (32432,0), 7 CTAs running
GPGPU-Sim uArch: core:  1, cta: 5 initialized @(32433,0)
GPGPU-Sim PTX: 11800000 instructions simulated : ctaid=(87,1,0) tid=(0,61,0)
GPGPU-Sim PTX: 11900000 instructions simulated : ctaid=(85,1,0) tid=(0,22,0)
GPGPU-Sim PTX: 12000000 instructions simulated : ctaid=(74,1,0) tid=(0,29,0)
GPGPU-Sim uArch: cycles simulated: 33500  inst.: 11342631 (ipc=338.6) sim_rate=391125 (inst/sec) elapsed = 0:0:00:29 / Fri Jan 16 05:17:16 2015
GPGPU-Sim uArch: Shader 2 finished CTA #3 (33584,0), 7 CTAs running
GPGPU-Sim uArch: core:  2, cta: 3 initialized @(33585,0)
GPGPU-Sim PTX: 12100000 instructions simulated : ctaid=(22,1,0) tid=(0,10,0)
GPGPU-Sim PTX: 12200000 instructions simulated : ctaid=(85,1,0) tid=(0,21,0)
GPGPU-Sim PTX: 12300000 instructions simulated : ctaid=(81,1,0) tid=(0,62,0)
GPGPU-Sim uArch: cycles simulated: 34500  inst.: 11605787 (ipc=336.4) sim_rate=386859 (inst/sec) elapsed = 0:0:00:30 / Fri Jan 16 05:17:17 2015
GPGPU-Sim uArch: Shader 1 finished CTA #7 (34684,0), 7 CTAs running
GPGPU-Sim uArch: core:  1, cta: 7 initialized @(34685,0)
GPGPU-Sim PTX: 12400000 instructions simulated : ctaid=(91,1,0) tid=(0,32,0)
GPGPU-Sim uArch: Shader 7 finished CTA #4 (34811,0), 7 CTAs running
GPGPU-Sim uArch: core:  7, cta: 4 initialized @(34812,0)
GPGPU-Sim PTX: 12500000 instructions simulated : ctaid=(65,1,0) tid=(0,50,0)
GPGPU-Sim uArch: Shader 4 finished CTA #5 (35426,0), 7 CTAs running
GPGPU-Sim uArch: core:  4, cta: 5 initialized @(35427,0)
GPGPU-Sim uArch: Shader 2 finished CTA #1 (35475,0), 7 CTAs running
GPGPU-Sim uArch: core:  2, cta: 1 initialized @(35476,0)
GPGPU-Sim PTX: 12600000 instructions simulated : ctaid=(30,1,0) tid=(0,10,0)
GPGPU-Sim uArch: Shader 12 finished CTA #3 (35689,0), 7 CTAs running
GPGPU-Sim uArch: core: 12, cta: 3 initialized @(35690,0)
GPGPU-Sim uArch: Shader 9 finished CTA #5 (35806,0), 7 CTAs running
GPGPU-Sim uArch: core:  9, cta: 5 initialized @(35807,0)
GPGPU-Sim uArch: cycles simulated: 36000  inst.: 11944665 (ipc=331.8) sim_rate=385311 (inst/sec) elapsed = 0:0:00:31 / Fri Jan 16 05:17:18 2015
GPGPU-Sim PTX: 12700000 instructions simulated : ctaid=(62,1,0) tid=(0,50,0)
GPGPU-Sim uArch: Shader 14 finished CTA #6 (36195,0), 7 CTAs running
GPGPU-Sim uArch: core: 14, cta: 6 initialized @(36196,0)
GPGPU-Sim uArch: Shader 7 finished CTA #5 (36380,0), 7 CTAs running
GPGPU-Sim uArch: core:  7, cta: 5 initialized @(36381,0)
GPGPU-Sim uArch: Shader 14 finished CTA #5 (36399,0), 7 CTAs running
GPGPU-Sim uArch: core: 14, cta: 5 initialized @(36400,0)
GPGPU-Sim uArch: Shader 1 finished CTA #3 (36434,0), 7 CTAs running
GPGPU-Sim uArch: core:  1, cta: 3 initialized @(36435,0)
GPGPU-Sim PTX: 12800000 instructions simulated : ctaid=(19,1,0) tid=(0,13,0)
GPGPU-Sim uArch: Shader 9 finished CTA #2 (36630,0), 7 CTAs running
GPGPU-Sim uArch: core:  9, cta: 2 initialized @(36631,0)
GPGPU-Sim uArch: Shader 8 finished CTA #2 (36683,0), 7 CTAs running
GPGPU-Sim uArch: core:  8, cta: 2 initialized @(36684,0)
GPGPU-Sim uArch: Shader 3 finished CTA #3 (36885,0), 7 CTAs running
GPGPU-Sim uArch: core:  3, cta: 3 initialized @(36886,0)
GPGPU-Sim PTX: 12900000 instructions simulated : ctaid=(118,1,0) tid=(0,61,0)
GPGPU-Sim uArch: Shader 12 finished CTA #1 (36975,0), 7 CTAs running
GPGPU-Sim uArch: core: 12, cta: 1 initialized @(36976,0)
GPGPU-Sim uArch: cycles simulated: 37000  inst.: 12157465 (ipc=328.6) sim_rate=379920 (inst/sec) elapsed = 0:0:00:32 / Fri Jan 16 05:17:19 2015
GPGPU-Sim uArch: Shader 9 finished CTA #7 (37104,0), 7 CTAs running
GPGPU-Sim uArch: core:  9, cta: 7 initialized @(37105,0)
GPGPU-Sim uArch: Shader 0 finished CTA #4 (37164,0), 7 CTAs running
GPGPU-Sim uArch: core:  0, cta: 4 initialized @(37165,0)
GPGPU-Sim uArch: Shader 2 finished CTA #2 (37215,0), 7 CTAs running
GPGPU-Sim uArch: core:  2, cta: 2 initialized @(37216,0)
GPGPU-Sim PTX: 13000000 instructions simulated : ctaid=(111,1,0) tid=(0,8,0)
GPGPU-Sim PTX: 13100000 instructions simulated : ctaid=(105,1,0) tid=(0,48,0)
GPGPU-Sim PTX: 13200000 instructions simulated : ctaid=(76,1,0) tid=(0,51,0)
GPGPU-Sim uArch: Shader 8 finished CTA #4 (38480,0), 7 CTAs running
GPGPU-Sim uArch: core:  8, cta: 4 initialized @(38481,0)
GPGPU-Sim uArch: cycles simulated: 38500  inst.: 12467859 (ipc=323.8) sim_rate=377813 (inst/sec) elapsed = 0:0:00:33 / Fri Jan 16 05:17:20 2015
GPGPU-Sim uArch: Shader 7 finished CTA #0 (38640,0), 7 CTAs running
GPGPU-Sim uArch: core:  7, cta: 0 initialized @(38641,0)
GPGPU-Sim PTX: 13300000 instructions simulated : ctaid=(124,1,0) tid=(0,24,0)
GPGPU-Sim uArch: Shader 13 finished CTA #5 (38827,0), 7 CTAs running
GPGPU-Sim uArch: core: 13, cta: 5 initialized @(38828,0)
GPGPU-Sim uArch: Shader 4 finished CTA #3 (38904,0), 7 CTAs running
GPGPU-Sim uArch: core:  4, cta: 3 initialized @(38905,0)
GPGPU-Sim uArch: Shader 13 finished CTA #4 (39128,0), 7 CTAs running
GPGPU-Sim uArch: core: 13, cta: 4 initialized @(39129,0)
GPGPU-Sim uArch: Shader 10 finished CTA #3 (39192,0), 7 CTAs running
GPGPU-Sim uArch: core: 10, cta: 3 initialized @(39193,0)
GPGPU-Sim uArch: Shader 9 finished CTA #3 (39203,0), 7 CTAs running
GPGPU-Sim uArch: core:  9, cta: 3 initialized @(39204,0)
GPGPU-Sim PTX: 13400000 instructions simulated : ctaid=(112,1,0) tid=(0,49,0)
GPGPU-Sim uArch: Shader 10 finished CTA #5 (39299,0), 7 CTAs running
GPGPU-Sim uArch: core: 10, cta: 5 initialized @(39300,0)
GPGPU-Sim uArch: Shader 10 finished CTA #2 (39407,0), 7 CTAs running
GPGPU-Sim uArch: core: 10, cta: 2 initialized @(39408,0)
GPGPU-Sim uArch: Shader 4 finished CTA #6 (39538,0), 7 CTAs running
GPGPU-Sim uArch: core:  4, cta: 6 initialized @(39539,0)
GPGPU-Sim PTX: 13500000 instructions simulated : ctaid=(113,1,0) tid=(0,60,0)
GPGPU-Sim uArch: Shader 11 finished CTA #4 (39728,0), 7 CTAs running
GPGPU-Sim uArch: core: 11, cta: 4 initialized @(39729,0)
GPGPU-Sim uArch: Shader 3 finished CTA #7 (39737,0), 7 CTAs running
GPGPU-Sim uArch: core:  3, cta: 7 initialized @(39738,0)
GPGPU-Sim uArch: Shader 5 finished CTA #7 (39744,0), 7 CTAs running
GPGPU-Sim uArch: core:  5, cta: 7 initialized @(39745,0)
GPGPU-Sim uArch: cycles simulated: 40000  inst.: 12804795 (ipc=320.1) sim_rate=376611 (inst/sec) elapsed = 0:0:00:34 / Fri Jan 16 05:17:21 2015
GPGPU-Sim PTX: 13600000 instructions simulated : ctaid=(113,1,0) tid=(0,53,0)
GPGPU-Sim uArch: Shader 7 finished CTA #2 (40265,0), 7 CTAs running
GPGPU-Sim uArch: core:  7, cta: 2 initialized @(40266,0)
GPGPU-Sim PTX: 13700000 instructions simulated : ctaid=(131,1,0) tid=(0,4,0)
GPGPU-Sim uArch: Shader 13 finished CTA #1 (40551,0), 7 CTAs running
GPGPU-Sim uArch: core: 13, cta: 1 initialized @(40552,0)
GPGPU-Sim PTX: 13800000 instructions simulated : ctaid=(134,1,0) tid=(0,27,0)
GPGPU-Sim uArch: cycles simulated: 41000  inst.: 13065277 (ipc=318.7) sim_rate=373293 (inst/sec) elapsed = 0:0:00:35 / Fri Jan 16 05:17:22 2015
GPGPU-Sim PTX: 13900000 instructions simulated : ctaid=(129,1,0) tid=(0,12,0)
GPGPU-Sim uArch: Shader 8 finished CTA #7 (41149,0), 7 CTAs running
GPGPU-Sim uArch: core:  8, cta: 7 initialized @(41150,0)
GPGPU-Sim uArch: Shader 6 finished CTA #6 (41282,0), 7 CTAs running
GPGPU-Sim uArch: core:  6, cta: 6 initialized @(41283,0)
GPGPU-Sim PTX: 14000000 instructions simulated : ctaid=(142,1,0) tid=(0,29,0)
GPGPU-Sim uArch: Shader 6 finished CTA #0 (41650,0), 7 CTAs running
GPGPU-Sim uArch: core:  6, cta: 0 initialized @(41651,0)
GPGPU-Sim uArch: Shader 1 finished CTA #6 (41757,0), 7 CTAs running
GPGPU-Sim uArch: core:  1, cta: 6 initialized @(41758,0)
GPGPU-Sim PTX: 14100000 instructions simulated : ctaid=(121,1,0) tid=(0,14,0)
GPGPU-Sim uArch: Shader 9 finished CTA #1 (41801,0), 7 CTAs running
GPGPU-Sim uArch: core:  9, cta: 1 initialized @(41802,0)
GPGPU-Sim uArch: cycles simulated: 42000  inst.: 13338662 (ipc=317.6) sim_rate=370518 (inst/sec) elapsed = 0:0:00:36 / Fri Jan 16 05:17:23 2015
GPGPU-Sim PTX: 14200000 instructions simulated : ctaid=(115,1,0) tid=(0,35,0)
GPGPU-Sim uArch: Shader 2 finished CTA #7 (42414,0), 7 CTAs running
GPGPU-Sim uArch: core:  2, cta: 7 initialized @(42415,0)
GPGPU-Sim PTX: 14300000 instructions simulated : ctaid=(123,1,0) tid=(0,63,0)
GPGPU-Sim uArch: Shader 8 finished CTA #5 (42569,0), 7 CTAs running
GPGPU-Sim uArch: core:  8, cta: 5 initialized @(42570,0)
GPGPU-Sim uArch: Shader 10 finished CTA #1 (42576,0), 7 CTAs running
GPGPU-Sim uArch: core: 10, cta: 1 initialized @(42577,0)
GPGPU-Sim uArch: Shader 6 finished CTA #4 (42636,0), 7 CTAs running
GPGPU-Sim uArch: core:  6, cta: 4 initialized @(42637,0)
GPGPU-Sim PTX: 14400000 instructions simulated : ctaid=(142,1,0) tid=(0,3,0)
GPGPU-Sim uArch: Shader 12 finished CTA #5 (42808,0), 7 CTAs running
GPGPU-Sim uArch: core: 12, cta: 5 initialized @(42809,0)
GPGPU-Sim PTX: 14500000 instructions simulated : ctaid=(150,1,0) tid=(0,53,0)
GPGPU-Sim uArch: Shader 12 finished CTA #2 (43061,0), 7 CTAs running
GPGPU-Sim uArch: core: 12, cta: 2 initialized @(43062,0)
GPGPU-Sim PTX: 14600000 instructions simulated : ctaid=(131,1,0) tid=(0,46,0)
GPGPU-Sim uArch: cycles simulated: 43500  inst.: 13795249 (ipc=317.1) sim_rate=372844 (inst/sec) elapsed = 0:0:00:37 / Fri Jan 16 05:17:24 2015
GPGPU-Sim uArch: Shader 2 finished CTA #0 (43528,0), 7 CTAs running
GPGPU-Sim uArch: core:  2, cta: 0 initialized @(43529,0)
GPGPU-Sim uArch: Shader 11 finished CTA #0 (43609,0), 7 CTAs running
GPGPU-Sim uArch: core: 11, cta: 0 initialized @(43610,0)
GPGPU-Sim uArch: Shader 8 finished CTA #3 (43614,0), 7 CTAs running
GPGPU-Sim uArch: core:  8, cta: 3 initialized @(43615,0)
GPGPU-Sim PTX: 14700000 instructions simulated : ctaid=(137,1,0) tid=(0,34,0)
GPGPU-Sim uArch: Shader 5 finished CTA #0 (43656,0), 7 CTAs running
[...]
gpgpu_stall_shd_mem[s_mem][bk_conf] = 0
gpgpu_stall_shd_mem[gl_mem][bk_conf] = 0
gpgpu_stall_shd_mem[gl_mem][coal_stall] = 110261
gpgpu_stall_shd_mem[gl_mem][data_port_stall] = 0
gpgpu_stall_shd_mem[g_mem_ld][mshr_rc] = 0
gpgpu_stall_shd_mem[g_mem_ld][icnt_rc] = 0
gpgpu_stall_shd_mem[g_mem_ld][wb_icnt_rc] = 0
gpgpu_stall_shd_mem[g_mem_ld][wb_rsrv_fail] = 0
gpgpu_stall_shd_mem[g_mem_st][mshr_rc] = 0
gpgpu_stall_shd_mem[g_mem_st][icnt_rc] = 0
gpgpu_stall_shd_mem[g_mem_st][wb_icnt_rc] = 0
gpgpu_stall_shd_mem[g_mem_st][wb_rsrv_fail] = 0
gpgpu_stall_shd_mem[l_mem_ld][mshr_rc] = 0
gpgpu_stall_shd_mem[l_mem_ld][icnt_rc] = 0
gpgpu_stall_shd_mem[l_mem_ld][wb_icnt_rc] = 0
gpgpu_stall_shd_mem[l_mem_ld][wb_rsrv_fail] = 0
gpgpu_stall_shd_mem[l_mem_st][mshr_rc] = 0
gpgpu_stall_shd_mem[l_mem_st][icnt_rc] = 0
gpgpu_stall_shd_mem[l_mem_ld][wb_icnt_rc] = 0
gpgpu_stall_shd_mem[l_mem_ld][wb_rsrv_fail] = 0
gpu_reg_bank_conflict_stalls = 0
Warp Occupancy Distribution:
Stall:324860	W0_Idle:134298	W0_Scoreboard:845958	W1:895870	W2:438206	W3:301298	W4:194538	W5:144260	W6:116160	W7:102954	W8:87904	W9:79360	W10:71968	W11:65632	W12:57696	W13:51264	W14:44016	W15:44704	W16:38368	W17:31392	W18:30752	W19:31504	W20:33392	W21:27312	W22:26800	W23:25040	W24:26576	W25:26576	W26:24368	W27:23248	W28:20832	W29:20912	W30:17104	W31:21216	W32:1095296
traffic_breakdown_coretomem[CONST_ACC_R] = 120 {8:15,}
traffic_breakdown_coretomem[GLOBAL_ACC_W] = 2621440 {40:65536,}
traffic_breakdown_coretomem[INST_ACC_R] = 480 {8:60,}
traffic_breakdown_memtocore[CONST_ACC_R] = 1080 {72:15,}
traffic_breakdown_memtocore[GLOBAL_ACC_W] = 524288 {8:65536,}
traffic_breakdown_memtocore[INST_ACC_R] = 8160 {136:60,}
maxmrqlatency = 23 
maxdqlatency = 0 
maxmflatency = 596 
averagemflatency = 170 
max_icnt2mem_latency = 383 
max_icnt2sh_latency = 190257 
mrq_lat_table:749 	99 	231 	144 	66 	0 	0 	0 	0 	0 	0 	0 	0 	0 	0 	0 	0 	0 	0 	0 	0 	0 	0 	0 	0 	0 	0 	0 	0 	0 	0 	0 	
dq_lat_table:0 	0 	0 	0 	0 	0 	0 	0 	0 	0 	0 	0 	0 	0 	0 	0 	0 	0 	0 	0 	0 	0 	0 	0 	0 	0 	0 	0 	0 	0 	0 	0 	
mf_lat_table:0 	0 	0 	0 	0 	0 	0 	64505 	1019 	27 	0 	0 	0 	0 	0 	0 	0 	0 	0 	0 	0 	0 	0 	0 	0 	0 	0 	0 	0 	0 	0 	0 	
icnt2mem_lat_table:0 	0 	0 	5762 	15722 	43911 	49 	98 	69 	0 	0 	0 	0 	0 	0 	0 	0 	0 	0 	0 	0 	0 	0 	0 	
icnt2sh_lat_table:0 	0 	0 	2 	13 	0 	0 	0 	0 	0 	0 	736 	2304 	2956 	11028 	10682 	22608 	15222 	0 	0 	0 	0 	0 	0 	
mf_lat_pw_table:0 	0 	0 	0 	0 	0 	0 	364 	3 	0 	0 	0 	0 	0 	0 	0 	0 	0 	0 	0 	0 	0 	0 	0 	0 	0 	0 	0 	0 	0 	0 	0 	
maximum concurrent accesses to same row:
dram[0]:         1         0         0         0         0         0         0         0         0         0         0         0         0         0         0         0 
dram[1]:         0         0         0         0         0         0         0         0         0         0         0         0         0         0         0         0 
dram[2]:         0         0         0         0         0         0         0         0         0         0         0         0         0         0         0         0 
dram[3]:         0         0         0         0         0         0         0         0         0         0         0         0         0         0         0         0 
dram[4]:         0         0         0         0         0         0         0         0         0         0         0         0         0         0         0         0 
dram[5]:         0         0         0         0         0         0         0         0         0         0         0         0         0         0         0         0 
maximum service time to same row:
dram[0]:       338         0         0         0      2343      2360     24027     24009         0         0         0         0         0         0         0         0 
dram[1]:      1279         0         0         0      2340      2357     24024     24006         0         0         0         0         0         0         0         0 
dram[2]:         0         0         0         0      2337      2354     24021     24038         0         0         0         0         0         0         0         0 
dram[3]:         0         0         0         0      2334      2351     24018     24035         0         0         0         0         0         0         0         0 
dram[4]:         0         0         0         0      2366      2349     24015     24032         0         0         0         0         0         0         0         0 
dram[5]:         0         0         0         0      2363      2346     24012     24029         0         0         0         0         0         0         0         0 
average row accesses per activate:
dram[0]:  1.000000      -nan      -nan      -nan 32.000000 29.000000 75.000000 73.000000      -nan      -nan      -nan      -nan      -nan      -nan      -nan      -nan 
dram[1]:  2.000000      -nan      -nan      -nan 32.000000 29.000000 75.000000 73.000000      -nan      -nan      -nan      -nan      -nan      -nan      -nan      -nan 
dram[2]:      -nan      -nan      -nan      -nan 32.000000 36.000000 75.000000 76.000000      -nan      -nan      -nan      -nan      -nan      -nan      -nan      -nan 
dram[3]:      -nan      -nan      -nan      -nan 32.000000 36.000000 75.000000 76.000000      -nan      -nan      -nan      -nan      -nan      -nan      -nan      -nan 
dram[4]:      -nan      -nan      -nan      -nan 29.000000 36.000000 73.000000 76.000000      -nan      -nan      -nan      -nan      -nan      -nan      -nan      -nan 
dram[5]:      -nan      -nan      -nan      -nan 29.000000 36.000000 73.000000 76.000000      -nan      -nan      -nan      -nan      -nan      -nan      -nan      -nan 
average row locality = 1289/28 = 46.035713
number of total memory accesses made:
dram[0]:         0         0         0         0         0         0         0         0         0         0         0         0         0         0         0         0 
dram[1]:         0         0         0         0         0         0         0         0         0         0         0         0         0         0         0         0 
dram[2]:         0         0         0         0         0         0         0         0         0         0         0         0         0         0         0         0 
dram[3]:         0         0         0         0         0         0         0         0         0         0         0         0         0         0         0         0 
dram[4]:         0         0         0         0         0         0         0         0         0         0         0         0         0         0         0         0 
dram[5]:         0         0         0         0         0         0         0         0         0         0         0         0         0         0         0         0 
total accesses: 0
min_bank_accesses = 0!
min_chip_accesses = 0!
number of total read accesses:
dram[0]:         3         0         0         0        10        10        32        32         0         0         0         0         0         0         0         0 
dram[1]:         2         0         0         0        10        10        32        32         0         0         0         0         0         0         0         0 
dram[2]:         0         0         0         0        10        12        32        32         0         0         0         0         0         0         0         0 
dram[3]:         0         0         0         0        10        12        32        32         0         0         0         0         0         0         0         0 
dram[4]:         0         0         0         0        10        12        32        32         0         0         0         0         0         0         0         0 
dram[5]:         0         0         0         0        10        12        32        32         0         0         0         0         0         0         0         0 
total reads: 517
min_bank_accesses = 0!
chip skew: 87/86 = 1.01
number of total write accesses:
dram[0]:         0         0         0         0        22        19        43        41         0         0         0         0         0         0         0         0 
dram[1]:         0         0         0         0        22        19        43        41         0         0         0         0         0         0         0         0 
dram[2]:         0         0         0         0        22        24        43        44         0         0         0         0         0         0         0         0 
dram[3]:         0         0         0         0        22        24        43        44         0         0         0         0         0         0         0         0 
dram[4]:         0         0         0         0        19        24        41        44         0         0         0         0         0         0         0         0 
dram[5]:         0         0         0         0        19        24        41        44         0         0         0         0         0         0         0         0 
total reads: 772
min_bank_accesses = 0!
chip skew: 133/125 = 1.06
average mf latency per bank:
dram[0]:       1300    none      none      none        7150      7756      9327      9446    none      none      none      none      none      none      none      none  
dram[1]:          0    none      none      none        7114      7703      9261      9372    none      none      none      none      none      none      none      none  
dram[2]:     none      none      none      none        7055      7611      9195      9212    none      none      none      none      none      none      none      none  
dram[3]:     none      none      none      none        7000      7559      9121      9143    none      none      none      none      none      none      none      none  
dram[4]:     none      none      none      none        7854      7497      9583      9079    none      none      none      none      none      none      none      none  
dram[5]:     none      none      none      none        7808      7446      9516      9007    none      none      none      none      none      none      none      none  
maximum mf latency per bank:
dram[0]:        278         0         0         0       586       482       308       316         0         0         0         0         0         0         0         0
dram[1]:          0         0         0         0       591       485       315       323         0         0         0         0         0         0         0         0
dram[2]:          0         0         0         0       586       596       322       330         0         0         0         0         0         0         0         0
dram[3]:          0         0         0         0       584       596       304       313         0         0         0         0         0         0         0         0
dram[4]:          0         0         0         0       484       588       322       320         0         0         0         0         0         0         0         0
dram[5]:          0         0         0         0       487       593       329       327         0         0         0         0         0         0         0         0
Memory Partition 0: 
Cache L2_bank_000:
MSHR contents

Cache L2_bank_001:
MSHR contents

In Dram Latency Queue (total = 0): 
DRAM[0]: 16 bks, busW=4 BL=8 CL=12, tRRD=2 tCCD=6, tRCD=12 tRAS=28 tRP=12 tRC=40
n_cmd=251140 n_nop=250832 n_act=7 n_pre=2 n_req=212 n_rd=174 n_write=125 bw_util=0.002381
n_activity=2584 dram_eff=0.2314
bk0: 6a 251069i bk1: 0a 251139i bk2: 0a 251142i bk3: 0a 251142i bk4: 20a 250892i bk5: 20a 250884i bk6: 64a 250420i bk7: 64a 250457i bk8: 0a 251138i bk9: 0a 251138i bk10: 0a 251139i bk11: 0a 251139i bk12: 0a 251139i bk13: 0a 251139i bk14: 0a 251139i bk15: 0a 251139i 
dram_util_bins: 0 0 0 0 0 0 0 0 0 0
dram_eff_bins: 0 0 0 0 0 0 0 0 0 0
mrqq: max=4 avg=0.0032452
Memory Partition 1: 
Cache L2_bank_002:
MSHR contents

Cache L2_bank_003:
MSHR contents

In Dram Latency Queue (total = 0): 
DRAM[1]: 16 bks, busW=4 BL=8 CL=12, tRRD=2 tCCD=6, tRCD=12 tRAS=28 tRP=12 tRC=40
n_cmd=251140 n_nop=250838 n_act=5 n_pre=0 n_req=211 n_rd=172 n_write=125 bw_util=0.002365
n_activity=2495 dram_eff=0.2381
bk0: 4a 251121i bk1: 0a 251141i bk2: 0a 251141i bk3: 0a 251142i bk4: 20a 250894i bk5: 20a 250880i bk6: 64a 250415i bk7: 64a 250453i bk8: 0a 251138i bk9: 0a 251138i bk10: 0a 251139i bk11: 0a 251139i bk12: 0a 251139i bk13: 0a 251139i bk14: 0a 251139i bk15: 0a 251139i 
dram_util_bins: 0 0 0 0 0 0 0 0 0 0
dram_eff_bins: 0 0 0 0 0 0 0 0 0 0
mrqq: max=4 avg=0.00334077
Memory Partition 2: 
Cache L2_bank_004:
MSHR contents

Cache L2_bank_005:
MSHR contents

In Dram Latency Queue (total = 0): 
DRAM[2]: 16 bks, busW=4 BL=8 CL=12, tRRD=2 tCCD=6, tRCD=12 tRAS=28 tRP=12 tRC=40
n_cmd=251140 n_nop=250831 n_act=4 n_pre=0 n_req=219 n_rd=172 n_write=133 bw_util=0.002429
n_activity=2519 dram_eff=0.2422
bk0: 0a 251140i bk1: 0a 251141i bk2: 0a 251141i bk3: 0a 251141i bk4: 20a 250891i bk5: 24a 250826i bk6: 64a 250389i bk7: 64a 250434i bk8: 0a 251138i bk9: 0a 251140i bk10: 0a 251140i bk11: 0a 251140i bk12: 0a 251140i bk13: 0a 251140i bk14: 0a 251140i bk15: 0a 251140i 
dram_util_bins: 0 0 0 0 0 0 0 0 0 0
dram_eff_bins: 0 0 0 0 0 0 0 0 0 0
mrqq: max=4 avg=0.00347615
Memory Partition 3: 
Cache L2_bank_006:
MSHR contents

Cache L2_bank_007:
MSHR contents

In Dram Latency Queue (total = 0): 
DRAM[3]: 16 bks, busW=4 BL=8 CL=12, tRRD=2 tCCD=6, tRCD=12 tRAS=28 tRP=12 tRC=40
n_cmd=251140 n_nop=250831 n_act=4 n_pre=0 n_req=219 n_rd=172 n_write=133 bw_util=0.002429
n_activity=2519 dram_eff=0.2422
bk0: 0a 251140i bk1: 0a 251141i bk2: 0a 251141i bk3: 0a 251141i bk4: 20a 250892i bk5: 24a 250826i bk6: 64a 250390i bk7: 64a 250436i bk8: 0a 251138i bk9: 0a 251140i bk10: 0a 251140i bk11: 0a 251140i bk12: 0a 251140i bk13: 0a 251140i bk14: 0a 251140i bk15: 0a 251140i 
dram_util_bins: 0 0 0 0 0 0 0 0 0 0
dram_eff_bins: 0 0 0 0 0 0 0 0 0 0
mrqq: max=4 avg=0.00346818
Memory Partition 4: 
Cache L2_bank_008:
MSHR contents

Cache L2_bank_009:
MSHR contents

In Dram Latency Queue (total = 0): 
DRAM[4]: 16 bks, busW=4 BL=8 CL=12, tRRD=2 tCCD=6, tRCD=12 tRAS=28 tRP=12 tRC=40
n_cmd=251140 n_nop=250836 n_act=4 n_pre=0 n_req=214 n_rd=172 n_write=128 bw_util=0.002389
n_activity=2485 dram_eff=0.2414
bk0: 0a 251140i bk1: 0a 251142i bk2: 0a 251142i bk3: 0a 251143i bk4: 20a 250872i bk5: 24a 250831i bk6: 64a 250449i bk7: 64a 250420i bk8: 0a 251136i bk9: 0a 251138i bk10: 0a 251138i bk11: 0a 251140i bk12: 0a 251140i bk13: 0a 251140i bk14: 0a 251140i bk15: 0a 251140i 
dram_util_bins: 0 0 0 0 0 0 0 0 0 0
dram_eff_bins: 0 0 0 0 0 0 0 0 0 0
mrqq: max=4 avg=0.00346818
Memory Partition 5: 
Cache L2_bank_010:
MSHR contents

Cache L2_bank_011:
MSHR contents

In Dram Latency Queue (total = 0): 
DRAM[5]: 16 bks, busW=4 BL=8 CL=12, tRRD=2 tCCD=6, tRCD=12 tRAS=28 tRP=12 tRC=40
n_cmd=251140 n_nop=250836 n_act=4 n_pre=0 n_req=214 n_rd=172 n_write=128 bw_util=0.002389
n_activity=2484 dram_eff=0.2415
bk0: 0a 251140i bk1: 0a 251142i bk2: 0a 251142i bk3: 0a 251143i bk4: 20a 250872i bk5: 24a 250832i bk6: 64a 250450i bk7: 64a 250421i bk8: 0a 251136i bk9: 0a 251138i bk10: 0a 251138i bk11: 0a 251140i bk12: 0a 251140i bk13: 0a 251140i bk14: 0a 251140i bk15: 0a 251140i 
dram_util_bins: 0 0 0 0 0 0 0 0 0 0
dram_eff_bins: 0 0 0 0 0 0 0 0 0 0
mrqq: max=4 avg=0.00346818

========= L2 cache stats =========
L2_cache_bank[0]: Access = 5421, Miss = 45, Miss_rate = 0.008, Pending_hits = 32, Reservation_fails = 665
L2_cache_bank[1]: Access = 5376, Miss = 42, Miss_rate = 0.008, Pending_hits = 18, Reservation_fails = 219
L2_cache_bank[2]: Access = 5406, Miss = 44, Miss_rate = 0.008, Pending_hits = 28, Reservation_fails = 419
L2_cache_bank[3]: Access = 5376, Miss = 42, Miss_rate = 0.008, Pending_hits = 18, Reservation_fails = 224
L2_cache_bank[4]: Access = 5376, Miss = 42, Miss_rate = 0.008, Pending_hits = 23, Reservation_fails = 323
L2_cache_bank[5]: Access = 5632, Miss = 44, Miss_rate = 0.008, Pending_hits = 24, Reservation_fails = 332
L2_cache_bank[6]: Access = 5376, Miss = 42, Miss_rate = 0.008, Pending_hits = 23, Reservation_fails = 323
L2_cache_bank[7]: Access = 5632, Miss = 44, Miss_rate = 0.008, Pending_hits = 24, Reservation_fails = 332
L2_cache_bank[8]: Access = 5376, Miss = 42, Miss_rate = 0.008, Pending_hits = 18, Reservation_fails = 220
L2_cache_bank[9]: Access = 5632, Miss = 44, Miss_rate = 0.008, Pending_hits = 24, Reservation_fails = 323
L2_cache_bank[10]: Access = 5376, Miss = 42, Miss_rate = 0.008, Pending_hits = 18, Reservation_fails = 219
L2_cache_bank[11]: Access = 5632, Miss = 44, Miss_rate = 0.008, Pending_hits = 24, Reservation_fails = 323
L2_total_cache_accesses = 65611
L2_total_cache_misses = 517
L2_total_cache_miss_rate = 0.0079
L2_total_cache_pending_hits = 274
L2_total_cache_reservation_fails = 3922
L2_total_cache_breakdown:
	L2_cache_stats_breakdown[CONST_ACC_R][HIT] = 11
	L2_cache_stats_breakdown[CONST_ACC_R][HIT_RESERVED] = 3
	L2_cache_stats_breakdown[CONST_ACC_R][MISS] = 1
	L2_cache_stats_breakdown[CONST_ACC_R][RESERVATION_FAIL] = 109
	L2_cache_stats_breakdown[GLOBAL_ACC_W][HIT] = 64764
	L2_cache_stats_breakdown[GLOBAL_ACC_W][HIT_RESERVED] = 260
	L2_cache_stats_breakdown[GLOBAL_ACC_W][MISS] = 512
	L2_cache_stats_breakdown[GLOBAL_ACC_W][RESERVATION_FAIL] = 3480
	L2_cache_stats_breakdown[INST_ACC_R][HIT] = 45
	L2_cache_stats_breakdown[INST_ACC_R][HIT_RESERVED] = 11
	L2_cache_stats_breakdown[INST_ACC_R][MISS] = 4
	L2_cache_stats_breakdown[INST_ACC_R][RESERVATION_FAIL] = 333
L2_cache_data_port_util = 0.028
L2_cache_fill_port_util = 0.001

icnt_total_pkts_mem_to_simt=65881
icnt_total_pkts_simt_to_mem=131147
LD_mem_lat_dist  0 0 0 0 0 0 0 0 0 0 0 0 0 0 0 0 0 0 0 0 0 0 0 0 0 0 0
ST_mem_lat_dist  0 0 0 0 0 0 0 0 0 0 0 0 0 0 0 0 0 0 0 0 0 0 0 0 0 0 0
----------------------------Interconnect-DETAILS--------------------------------
Class 0:
Packet latency average = 14.2962
	minimum = 6
	maximum = 277
Network latency average = 9.74029
	minimum = 6
	maximum = 266
Slowest packet = 649
Flit latency average = 10.2843
	minimum = 6
	maximum = 265
Slowest flit = 1432
Fragmentation average = 0
	minimum = 0
	maximum = 0
Injected packet rate average = 0.0255447
	minimum = 0.0208822 (at node 0)
	maximum = 0.0296019 (at node 20)
Accepted packet rate average = 0.0255447
	minimum = 0.0208822 (at node 0)
	maximum = 0.0296019 (at node 20)
Injected flit rate average = 0.0383549
	minimum = 0.0282564 (at node 16)
	maximum = 0.0525024 (at node 5)
Accepted flit rate average= 0.0383549
	minimum = 0.0209768 (at node 0)
	maximum = 0.0592038 (at node 20)
Injected packet length average = 1.50149
Accepted packet length average = 1.50149
Total in-flight flits = 0 (0 measured)
====== Overall Traffic Statistics ======
====== Traffic class 0 ======
Packet latency average = 14.2962 (1 samples)
	minimum = 6 (1 samples)
	maximum = 277 (1 samples)
Network latency average = 9.74029 (1 samples)
	minimum = 6 (1 samples)
	maximum = 266 (1 samples)
Flit latency average = 10.2843 (1 samples)
	minimum = 6 (1 samples)
	maximum = 265 (1 samples)
Fragmentation average = 0 (1 samples)
	minimum = 0 (1 samples)
	maximum = 0 (1 samples)
Injected packet rate average = 0.0255447 (1 samples)
	minimum = 0.0208822 (1 samples)
	maximum = 0.0296019 (1 samples)
Accepted packet rate average = 0.0255447 (1 samples)
	minimum = 0.0208822 (1 samples)
	maximum = 0.0296019 (1 samples)
Injected flit rate average = 0.0383549 (1 samples)
	minimum = 0.0282564 (1 samples)
	maximum = 0.0525024 (1 samples)
Accepted flit rate average = 0.0383549 (1 samples)
	minimum = 0.0209768 (1 samples)
	maximum = 0.0592038 (1 samples)
Injected packet size average = 1.50149 (1 samples)
Accepted packet size average = 1.50149 (1 samples)
Hops average = 1 (1 samples)
----------------------------END-of-Interconnect-DETAILS-------------------------


gpgpu_simulation_time = 0 days, 0 hrs, 2 min, 34 sec (154 sec)
gpgpu_simulation_rate = 340646 (inst/sec)
gpgpu_simulation_rate = 1235 (cycle/sec)
