

        *** GPGPU-Sim Simulator Version 3.2.2  [build 17315] ***


GPGPU-Sim PTX: simulation mode 0 (can change with PTX_SIM_MODE_FUNC environment variable:
               1=functional simulation only, 0=detailed performance simulator)
GPGPU-Sim: Configuration options:

-network_mode                           1 # Interconnection network mode
-inter_config_file   config_fermi_islip.icnt # Interconnection network config file
-gpgpu_ptx_use_cuobjdump                    1 # Use cuobjdump to extract ptx and sass from binaries
-gpgpu_experimental_lib_support                    0 # Try to extract code from cuda libraries [Broken because of unknown cudaGetExportTable]
-gpgpu_ptx_convert_to_ptxplus                    0 # Convert SASS (native ISA) to ptxplus and run ptxplus
-gpgpu_ptx_force_max_capability                   20 # Force maximum compute capability
-gpgpu_ptx_inst_debug_to_file                    0 # Dump executed instructions' debug information to file
-gpgpu_ptx_inst_debug_file       inst_debug.txt # Executed instructions' debug output file
-gpgpu_ptx_inst_debug_thread_uid                    1 # Thread UID for executed instructions' debug output
-gpgpu_simd_model                       1 # 1 = post-dominator
-gpgpu_shader_core_pipeline              1536:32 # shader core pipeline config, i.e., {<nthread>:<warpsize>}
-gpgpu_tex_cache:l1  4:128:24,L:R:m:N,F:128:4,128:2 # per-shader L1 texture cache  (READ-ONLY) config  {<nsets>:<bsize>:<assoc>,<rep>:<wr>:<alloc>:<wr_alloc>,<mshr>:<N>:<merge>,<mq>:<rf>}
-gpgpu_const_cache:l1 64:64:2,L:R:f:N,A:2:32,4 # per-shader L1 constant memory cache  (READ-ONLY) config  {<nsets>:<bsize>:<assoc>,<rep>:<wr>:<alloc>:<wr_alloc>,<mshr>:<N>:<merge>,<mq>} 
-gpgpu_cache:il1     4:128:4,L:R:f:N,A:2:32,4 # shader L1 instruction cache config  {<nsets>:<bsize>:<assoc>,<rep>:<wr>:<alloc>:<wr_alloc>,<mshr>:<N>:<merge>,<mq>} 
-gpgpu_cache:dl1     32:128:4,L:L:m:N,A:32:8,8 # per-shader L1 data cache config  {<nsets>:<bsize>:<assoc>,<rep>:<wr>:<alloc>:<wr_alloc>,<mshr>:<N>:<merge>,<mq> | none}
-gpgpu_cache:dl1PrefL1                 none # per-shader L1 data cache config  {<nsets>:<bsize>:<assoc>,<rep>:<wr>:<alloc>:<wr_alloc>,<mshr>:<N>:<merge>,<mq> | none}
-gpgpu_cache:dl1PreShared                 none # per-shader L1 data cache config  {<nsets>:<bsize>:<assoc>,<rep>:<wr>:<alloc>:<wr_alloc>,<mshr>:<N>:<merge>,<mq> | none}
-gmem_skip_L1D                          0 # global memory access skip L1D cache (implements -Xptxas -dlcm=cg, default=no skip)
-gpgpu_perfect_mem                      0 # enable perfect memory mode (no cache miss)
-n_regfile_gating_group                    4 # group of lanes that should be read/written together)
-gpgpu_clock_gated_reg_file                    0 # enable clock gated reg file for power calculations
-gpgpu_clock_gated_lanes                    0 # enable clock gated lanes for power calculations
-gpgpu_shader_registers                32768 # Number of registers per shader core. Limits number of concurrent CTAs. (default 8192)
-gpgpu_shader_cta                       8 # Maximum number of concurrent CTAs in shader (default 8)
-gpgpu_n_clusters                      15 # number of processing clusters
-gpgpu_n_cores_per_cluster                    1 # number of simd cores per cluster
-gpgpu_n_cluster_ejection_buffer_size                    8 # number of packets in ejection buffer
-gpgpu_n_ldst_response_buffer_size                    2 # number of response packets in ld/st unit ejection buffer
-gpgpu_shmem_size                   16384 # Size of shared memory per shader core (default 16kB)
-gpgpu_shmem_size                   49152 # Size of shared memory per shader core (default 16kB)
-gpgpu_shmem_size_PrefL1                16384 # Size of shared memory per shader core (default 16kB)
-gpgpu_shmem_size_PrefShared                16384 # Size of shared memory per shader core (default 16kB)
-gpgpu_shmem_num_banks                   32 # Number of banks in the shared memory in each shader core (default 16)
-gpgpu_shmem_limited_broadcast                    0 # Limit shared memory to do one broadcast per cycle (default on)
-gpgpu_shmem_warp_parts                    1 # Number of portions a warp is divided into for shared memory bank conflict check 
-gpgpu_warpdistro_shader                   -1 # Specify which shader core to collect the warp size distribution from
-gpgpu_warp_issue_shader                    0 # Specify which shader core to collect the warp issue distribution from
-gpgpu_local_mem_map                    1 # Mapping from local memory space address to simulated GPU physical address space (default = enabled)
-gpgpu_num_reg_banks                   16 # Number of register banks (default = 8)
-gpgpu_reg_bank_use_warp_id                    0 # Use warp ID in mapping registers to banks (default = off)
-gpgpu_operand_collector_num_units_sp                    6 # number of collector units (default = 4)
-gpgpu_operand_collector_num_units_sfu                    8 # number of collector units (default = 4)
-gpgpu_operand_collector_num_units_mem                    2 # number of collector units (default = 2)
-gpgpu_operand_collector_num_units_gen                    0 # number of collector units (default = 0)
-gpgpu_operand_collector_num_in_ports_sp                    2 # number of collector unit in ports (default = 1)
-gpgpu_operand_collector_num_in_ports_sfu                    1 # number of collector unit in ports (default = 1)
-gpgpu_operand_collector_num_in_ports_mem                    1 # number of collector unit in ports (default = 1)
-gpgpu_operand_collector_num_in_ports_gen                    0 # number of collector unit in ports (default = 0)
-gpgpu_operand_collector_num_out_ports_sp                    2 # number of collector unit in ports (default = 1)
-gpgpu_operand_collector_num_out_ports_sfu                    1 # number of collector unit in ports (default = 1)
-gpgpu_operand_collector_num_out_ports_mem                    1 # number of collector unit in ports (default = 1)
-gpgpu_operand_collector_num_out_ports_gen                    0 # number of collector unit in ports (default = 0)
-gpgpu_coalesce_arch                   13 # Coalescing arch (default = 13, anything else is off for now)
-gpgpu_num_sched_per_core                    2 # Number of warp schedulers per core
-gpgpu_max_insn_issue_per_warp                    1 # Max number of instructions that can be issued per warp in one cycle by scheduler
-gpgpu_simt_core_sim_order                    1 # Select the simulation order of cores in a cluster (0=Fix, 1=Round-Robin)
-gpgpu_pipeline_widths        2,1,1,2,1,1,2 # Pipeline widths ID_OC_SP,ID_OC_SFU,ID_OC_MEM,OC_EX_SP,OC_EX_SFU,OC_EX_MEM,EX_WB
-gpgpu_num_sp_units                     2 # Number of SP units (default=1)
-gpgpu_num_sfu_units                    1 # Number of SF units (default=1)
-gpgpu_num_mem_units                    1 # Number if ldst units (default=1) WARNING: not hooked up to anything
-gpgpu_scheduler                      gto # Scheduler configuration: < lrr | gto | two_level_active > If two_level_active:<num_active_warps>:<inner_prioritization>:<outer_prioritization>For complete list of prioritization values see shader.h enum scheduler_prioritization_typeDefault: gto
-gpgpu_dram_scheduler                    1 # 0 = fifo, 1 = FR-FCFS (defaul)
-gpgpu_dram_partition_queues              8:8:8:8 # i2$:$2d:d2$:$2i
-l2_ideal                               0 # Use a ideal L2 cache that always hit
-gpgpu_cache:dl2     64:128:8,L:B:m:W,A:32:4,4:0,32 # unified banked L2 data cache config  {<nsets>:<bsize>:<assoc>,<rep>:<wr>:<alloc>:<wr_alloc>,<mshr>:<N>:<merge>,<mq>}
-gpgpu_cache:dl2_texture_only                    0 # L2 cache used for texture only
-gpgpu_n_mem                            6 # number of memory modules (e.g. memory controllers) in gpu
-gpgpu_n_sub_partition_per_mchannel                    2 # number of memory subpartition in each memory module
-gpgpu_n_mem_per_ctrlr                    2 # number of memory chips per memory controller
-gpgpu_memlatency_stat                   14 # track and display latency statistics 0x2 enables MC, 0x4 enables queue logs
-gpgpu_frfcfs_dram_sched_queue_size                   16 # 0 = unlimited (default); # entries per chip
-gpgpu_dram_return_queue_size                  116 # 0 = unlimited (default); # entries per chip
-gpgpu_dram_buswidth                    4 # default = 4 bytes (8 bytes per cycle at DDR)
-gpgpu_dram_burst_length                    8 # Burst length of each DRAM request (default = 4 data bus cycle)
-dram_data_command_freq_ratio                    4 # Frequency ratio between DRAM data bus and command bus (default = 2 times, i.e. DDR)
-gpgpu_dram_timing_opt nbk=16:CCD=2:RRD=6:RCD=12:RAS=28:RP=12:RC=40: CL=12:WL=4:CDLR=5:WR=12:nbkgrp=4:CCDL=3:RTPL=2 # DRAM timing parameters = {nbk:tCCD:tRRD:tRCD:tRAS:tRP:tRC:CL:WL:tCDLR:tWR:nbkgrp:tCCDL:tRTPL}
-rop_latency                          120 # ROP queue latency (default 85)
-dram_latency                         100 # DRAM latency (default 30)
-gpgpu_mem_addr_mapping dramid@8;00000000.00000000.00000000.00000000.0000RRRR.RRRRRRRR.BBBCCCCB.CCSSSSSS # mapping memory address to dram model {dramid@<start bit>;<memory address map>}
-gpgpu_mem_addr_test                    0 # run sweep test to check address mapping for aliased address
-gpgpu_mem_address_mask                    1 # 0 = old addressing mask, 1 = new addressing mask, 2 = new add. mask + flipped bank sel and chip sel bits
-gpuwattch_xml_file         gpuwattch.xml # GPUWattch XML file
-power_simulation_enabled                    0 # Turn on power simulator (1=On, 0=Off)
-power_per_cycle_dump                    0 # Dump detailed power output each cycle
-power_trace_enabled                    0 # produce a file for the power trace (1=On, 0=Off)
-power_trace_zlevel                     6 # Compression level of the power trace output log (0=no comp, 9=highest)
-steady_power_levels_enabled                    0 # produce a file for the steady power levels (1=On, 0=Off)
-steady_state_definition                  8:4 # allowed deviation:number of samples
-gpgpu_max_cycle                        0 # terminates gpu simulation early (0 = no limit)
-gpgpu_max_insn                         0 # terminates gpu simulation early (0 = no limit)
-gpgpu_max_cta                          0 # terminates gpu simulation early (0 = no limit)
-gpgpu_runtime_stat                   500 # display runtime statistics such as dram utilization {<freq>:<flag>}
-liveness_message_freq                    1 # Minimum number of seconds between simulation liveness messages (0 = always print)
-gpgpu_flush_l1_cache                    0 # Flush L1 cache at the end of each kernel call
-gpgpu_flush_l2_cache                    0 # Flush L2 cache at the end of each kernel call
-gpgpu_deadlock_detect                    1 # Stop the simulation at deadlock (1=on (default), 0=off)
-gpgpu_ptx_instruction_classification                    0 # if enabled will classify ptx instruction types per kernel (Max 255 kernels now)
-gpgpu_ptx_sim_mode                     0 # Select between Performance (default) or Functional simulation (1)
-gpgpu_clock_domains 700.0:700.0:700.0:924.0 # Clock Domain Frequencies in MhZ {<Core Clock>:<ICNT Clock>:<L2 Clock>:<DRAM Clock>}
-gpgpu_max_concurrent_kernel                    8 # maximum kernels that can run concurrently on GPU
-gpgpu_cflog_interval                    0 # Interval between each snapshot in control flow logger
-visualizer_enabled                     0 # Turn on visualizer output (1=On, 0=Off)
-visualizer_outputfile                 NULL # Specifies the output log file for visualizer
-visualizer_zlevel                      6 # Compression level of the visualizer output log (0=no comp, 9=highest)
-trace_enabled                          0 # Turn on traces
-trace_components                    none # comma seperated list of traces to enable. Complete list found in trace_streams.tup. Default none
-trace_sampling_core                    0 # The core which is printed using CORE_DPRINTF. Default 0
-trace_sampling_memory_partition                   -1 # The memory partition which is printed using MEMPART_DPRINTF. Default -1 (i.e. all)
-enable_ptx_file_line_stats                    1 # Turn on PTX source line statistic profiling. (1 = On)
-ptx_line_stats_filename gpgpu_inst_stats.txt # Output file for PTX source line statistics.
-save_embedded_ptx                      0 # saves ptx files embedded in binary as <n>.ptx
-keep                                   0 # keep intermediate files created by GPGPU-Sim when interfacing with external programs
-gpgpu_ptx_save_converted_ptxplus                    0 # Saved converted ptxplus to a file
-ptx_opcode_latency_int         4,13,4,5,145 # Opcode latencies for integers <ADD,MAX,MUL,MAD,DIV>Default 1,1,19,25,145
-ptx_opcode_latency_fp          4,13,4,5,39 # Opcode latencies for single precision floating points <ADD,MAX,MUL,MAD,DIV>Default 1,1,1,1,30
-ptx_opcode_latency_dp         8,19,8,8,330 # Opcode latencies for double precision floating points <ADD,MAX,MUL,MAD,DIV>Default 8,8,8,8,335
-ptx_opcode_initiation_int            1,2,2,1,8 # Opcode initiation intervals for integers <ADD,MAX,MUL,MAD,DIV>Default 1,1,4,4,32
-ptx_opcode_initiation_fp            1,2,1,1,4 # Opcode initiation intervals for single precision floating points <ADD,MAX,MUL,MAD,DIV>Default 1,1,1,1,5
-ptx_opcode_initiation_dp         8,16,8,8,130 # Opcode initiation intervals for double precision floating points <ADD,MAX,MUL,MAD,DIV>Default 8,8,8,8,130
DRAM Timing Options:
nbk                                    16 # number of banks
CCD                                     2 # column to column delay
RRD                                     6 # minimal delay between activation of rows in different banks
RCD                                    12 # row to column delay
RAS                                    28 # time needed to activate row
RP                                     12 # time needed to precharge (deactivate) row
RC                                     40 # row cycle time
CDLR                                    5 # switching from write to read (changes tWTR)
WR                                     12 # last data-in to row precharge
CL                                     12 # CAS latency
WL                                      4 # Write latency
nbkgrp                                  4 # number of bank groups
CCDL                                    3 # column to column delay between accesses to different bank groups
RTPL                                    2 # read to precharge delay between accesses to different bank groups
Total number of memory sub partition = 12
addr_dec_mask[CHIP]  = 0000000000000000 	high:64 low:0
addr_dec_mask[BK]    = 000000000000e100 	high:16 low:8
addr_dec_mask[ROW]   = 000000000fff0000 	high:28 low:16
addr_dec_mask[COL]   = 0000000000001eff 	high:13 low:0
addr_dec_mask[BURST] = 000000000000003f 	high:6 low:0
sub_partition_id_mask = 0000000000000100
GPGPU-Sim uArch: clock freqs: 700000000.000000:700000000.000000:700000000.000000:924000000.000000
GPGPU-Sim uArch: clock periods: 0.00000000142857142857:0.00000000142857142857:0.00000000142857142857:0.00000000108225108225
*** Initializing Memory Statistics ***
GPGPU-Sim uArch: interconnect node map (shaderID+MemID to icntID)
GPGPU-Sim uArch: Memory nodes ID start from index: 15
GPGPU-Sim uArch:    0   1   2   3   4
GPGPU-Sim uArch:    5   6   7   8   9
GPGPU-Sim uArch:   10  11  12  13  14
GPGPU-Sim uArch:   15  16  17  18  19
GPGPU-Sim uArch:   20  21  22  23  24
GPGPU-Sim uArch:   25  26
GPGPU-Sim uArch: interconnect node reverse map (icntID to shaderID+MemID)
GPGPU-Sim uArch: Memory nodes start from ID: 15
GPGPU-Sim uArch:    0   1   2   3   4
GPGPU-Sim uArch:    5   6   7   8   9
GPGPU-Sim uArch:   10  11  12  13  14
GPGPU-Sim uArch:   15  16  17  18  19
GPGPU-Sim uArch:   20  21  22  23  24
GPGPU-Sim uArch:   25  26
35e4989e7e2383a1c0ff536b7ce586fc  /afs/tu-berlin.de/home/t/tobias.fuchs/irb-ubuntu/Dokumente/new4/MCS1415/CUDA/assignment1/gpumcs/gpu_out
GPGPU-Sim uArch: performance model initialization complete.
GPGPU-Sim PTX: __cudaRegisterFatBinary, fat_cubin_handle = 1, filename=gpu_julia.cu
self exe links to: /afs/tu-berlin.de/home/t/tobias.fuchs/irb-ubuntu/Dokumente/new4/MCS1415/CUDA/assignment1/gpumcs/gpu_out
Running md5sum using "md5sum /afs/tu-berlin.de/home/t/tobias.fuchs/irb-ubuntu/Dokumente/new4/MCS1415/CUDA/assignment1/gpumcs/gpu_out "
Running cuobjdump using "$CUDA_INSTALL_PATH/bin/cuobjdump -ptx -elf -sass /afs/tu-berlin.de/home/t/tobias.fuchs/irb-ubuntu/Dokumente/new4/MCS1415/CUDA/assignment1/gpumcs/gpu_out > _cuobjdump_complete_output_4zdNKR"
Parsing file _cuobjdump_complete_output_4zdNKR
######### cuobjdump parser ########
## Adding new section ELF
Adding arch: sm_10
Adding identifier: gpu_julia.cu
## Adding new section PTX
Adding ptx filename: _cuobjdump_1.ptx
Adding arch: sm_10
Adding identifier: gpu_julia.cu
Done parsing!!!
GPGPU-Sim PTX: __cudaRegisterFunction _Z12calc_fractaliiffPh : hostFun 0x0x401073, fat_cubin_handle = 1
GPGPU-Sim PTX: instruction assembly for function '_Z12calc_fractaliiffPh'...   done.
GPGPU-Sim PTX: finding reconvergence points for '_Z12calc_fractaliiffPh'...
GPGPU-Sim PTX: Finding dominators for '_Z12calc_fractaliiffPh'...
GPGPU-Sim PTX: Finding immediate dominators for '_Z12calc_fractaliiffPh'...
GPGPU-Sim PTX: Finding postdominators for '_Z12calc_fractaliiffPh'...
GPGPU-Sim PTX: Finding immediate postdominators for '_Z12calc_fractaliiffPh'...
GPGPU-Sim PTX: pre-decoding instructions for '_Z12calc_fractaliiffPh'...
GPGPU-Sim PTX: reconvergence points for _Z12calc_fractaliiffPh...
GPGPU-Sim PTX:  1 (potential) branch divergence @  PC=0x100 (_1.ptx:101) @%p1 bra $Lt_0_258;
GPGPU-Sim PTX:    immediate post dominator      @  PC=0x158 (_1.ptx:117) ld.param.s32 %r4, [__cudaparm__Z12calc_fractaliiffPh_width];
GPGPU-Sim PTX:  2 (potential) branch divergence @  PC=0x150 (_1.ptx:114) @%p2 bra $Lt_0_2306;
GPGPU-Sim PTX:    immediate post dominator      @  PC=0x158 (_1.ptx:117) ld.param.s32 %r4, [__cudaparm__Z12calc_fractaliiffPh_width];
GPGPU-Sim PTX: ... end of reconvergence points for _Z12calc_fractaliiffPh
GPGPU-Sim PTX: ... done pre-decoding instructions for '_Z12calc_fractaliiffPh'.
GPGPU-Sim PTX: finished parsing EMBEDDED .ptx file _1.ptx
Adding _cuobjdump_1.ptx with cubin handle 1
GPGPU-Sim PTX: extracting embedded .ptx to temporary file "_ptx_mXjlTO"
Running: cat _ptx_mXjlTO | sed 's/.version 1.5/.version 1.4/' | sed 's/, texmode_independent//' | sed 's/\(\.extern \.const\[1\] .b8 \w\+\)\[\]/\1\[1\]/' | sed 's/const\[.\]/const\[0\]/g' > _ptx2_glUj3L
GPGPU-Sim PTX: generating ptxinfo using "$CUDA_INSTALL_PATH/bin/ptxas --gpu-name=sm_20 -v _ptx2_glUj3L --output-file  /dev/null 2> _ptx_mXjlTOinfo"
GPGPU-Sim PTX: Kernel '_Z12calc_fractaliiffPh' : regs=9, lmem=0, smem=0, cmem=60
GPGPU-Sim PTX: removing ptxinfo using "rm -f _ptx_mXjlTO _ptx2_glUj3L _ptx_mXjlTOinfo"
GPGPU-Sim PTX: loading globals with explicit initializers... 
GPGPU-Sim PTX: finished loading globals (0 bytes total).
GPGPU-Sim PTX: loading constants with explicit initializers...  done.

GPGPU-Sim PTX: cudaLaunch for 0x0x401073 (mode=performance simulation) on stream 0
GPGPU-Sim PTX: pushing kernel '_Z12calc_fractaliiffPh' to stream 0, gridDim= (1,256,1) blockDim = (256,1,1) 
kernel '_Z12calc_fractaliiffPh' transfer to GPU hardware scheduler
GPGPU-Sim uArch: Shader 1 bind to kernel 1 '_Z12calc_fractaliiffPh'
GPGPU-Sim uArch: CTA/core = 6, limited by: threads
GPGPU-Sim uArch: core:  1, cta: 0 initialized @(1,0)
GPGPU-Sim uArch: Shader 2 bind to kernel 1 '_Z12calc_fractaliiffPh'
GPGPU-Sim uArch: core:  2, cta: 0 initialized @(1,0)
GPGPU-Sim uArch: Shader 3 bind to kernel 1 '_Z12calc_fractaliiffPh'
GPGPU-Sim uArch: core:  3, cta: 0 initialized @(1,0)
GPGPU-Sim uArch: Shader 4 bind to kernel 1 '_Z12calc_fractaliiffPh'
GPGPU-Sim uArch: core:  4, cta: 0 initialized @(1,0)
GPGPU-Sim uArch: Shader 5 bind to kernel 1 '_Z12calc_fractaliiffPh'
GPGPU-Sim uArch: core:  5, cta: 0 initialized @(1,0)
GPGPU-Sim uArch: Shader 6 bind to kernel 1 '_Z12calc_fractaliiffPh'
GPGPU-Sim uArch: core:  6, cta: 0 initialized @(1,0)
GPGPU-Sim uArch: Shader 7 bind to kernel 1 '_Z12calc_fractaliiffPh'
GPGPU-Sim uArch: core:  7, cta: 0 initialized @(1,0)
GPGPU-Sim uArch: Shader 8 bind to kernel 1 '_Z12calc_fractaliiffPh'
GPGPU-Sim uArch: core:  8, cta: 0 initialized @(1,0)
GPGPU-Sim uArch: Shader 9 bind to kernel 1 '_Z12calc_fractaliiffPh'
GPGPU-Sim uArch: core:  9, cta: 0 initialized @(1,0)
GPGPU-Sim uArch: Shader 10 bind to kernel 1 '_Z12calc_fractaliiffPh'
GPGPU-Sim uArch: core: 10, cta: 0 initialized @(1,0)
GPGPU-Sim uArch: Shader 11 bind to kernel 1 '_Z12calc_fractaliiffPh'
GPGPU-Sim uArch: core: 11, cta: 0 initialized @(1,0)
GPGPU-Sim uArch: Shader 12 bind to kernel 1 '_Z12calc_fractaliiffPh'
GPGPU-Sim uArch: core: 12, cta: 0 initialized @(1,0)
GPGPU-Sim uArch: Shader 13 bind to kernel 1 '_Z12calc_fractaliiffPh'
GPGPU-Sim uArch: core: 13, cta: 0 initialized @(1,0)
GPGPU-Sim uArch: Shader 14 bind to kernel 1 '_Z12calc_fractaliiffPh'
GPGPU-Sim uArch: core: 14, cta: 0 initialized @(1,0)
GPGPU-Sim uArch: Shader 0 bind to kernel 1 '_Z12calc_fractaliiffPh'
GPGPU-Sim uArch: core:  0, cta: 0 initialized @(1,0)
GPGPU-Sim uArch: core:  1, cta: 1 initialized @(2,0)
GPGPU-Sim uArch: core:  2, cta: 1 initialized @(2,0)
GPGPU-Sim uArch: core:  3, cta: 1 initialized @(2,0)
GPGPU-Sim uArch: core:  4, cta: 1 initialized @(2,0)
GPGPU-Sim uArch: core:  5, cta: 1 initialized @(2,0)
GPGPU-Sim uArch: core:  6, cta: 1 initialized @(2,0)
GPGPU-Sim uArch: core:  7, cta: 1 initialized @(2,0)
GPGPU-Sim uArch: core:  8, cta: 1 initialized @(2,0)
GPGPU-Sim uArch: core:  9, cta: 1 initialized @(2,0)
GPGPU-Sim uArch: core: 10, cta: 1 initialized @(2,0)
GPGPU-Sim uArch: core: 11, cta: 1 initialized @(2,0)
GPGPU-Sim uArch: core: 12, cta: 1 initialized @(2,0)
GPGPU-Sim uArch: core: 13, cta: 1 initialized @(2,0)
GPGPU-Sim uArch: core: 14, cta: 1 initialized @(2,0)
GPGPU-Sim uArch: core:  0, cta: 1 initialized @(2,0)
GPGPU-Sim uArch: core:  1, cta: 2 initialized @(3,0)
GPGPU-Sim uArch: core:  2, cta: 2 initialized @(3,0)
GPGPU-Sim uArch: core:  3, cta: 2 initialized @(3,0)
GPGPU-Sim uArch: core:  4, cta: 2 initialized @(3,0)
GPGPU-Sim uArch: core:  5, cta: 2 initialized @(3,0)
GPGPU-Sim uArch: core:  6, cta: 2 initialized @(3,0)
GPGPU-Sim uArch: core:  7, cta: 2 initialized @(3,0)
GPGPU-Sim uArch: core:  8, cta: 2 initialized @(3,0)
GPGPU-Sim uArch: core:  9, cta: 2 initialized @(3,0)
GPGPU-Sim uArch: core: 10, cta: 2 initialized @(3,0)
GPGPU-Sim uArch: core: 11, cta: 2 initialized @(3,0)
GPGPU-Sim uArch: core: 12, cta: 2 initialized @(3,0)
GPGPU-Sim uArch: core: 13, cta: 2 initialized @(3,0)
GPGPU-Sim uArch: core: 14, cta: 2 initialized @(3,0)
GPGPU-Sim uArch: core:  0, cta: 2 initialized @(3,0)
GPGPU-Sim uArch: core:  1, cta: 3 initialized @(4,0)
GPGPU-Sim uArch: core:  2, cta: 3 initialized @(4,0)
GPGPU-Sim uArch: core:  3, cta: 3 initialized @(4,0)
GPGPU-Sim uArch: core:  4, cta: 3 initialized @(4,0)
GPGPU-Sim uArch: core:  5, cta: 3 initialized @(4,0)
GPGPU-Sim uArch: core:  6, cta: 3 initialized @(4,0)
GPGPU-Sim uArch: core:  7, cta: 3 initialized @(4,0)
GPGPU-Sim uArch: core:  8, cta: 3 initialized @(4,0)
GPGPU-Sim uArch: core:  9, cta: 3 initialized @(4,0)
GPGPU-Sim uArch: core: 10, cta: 3 initialized @(4,0)
GPGPU-Sim uArch: core: 11, cta: 3 initialized @(4,0)
GPGPU-Sim uArch: core: 12, cta: 3 initialized @(4,0)
GPGPU-Sim uArch: core: 13, cta: 3 initialized @(4,0)
GPGPU-Sim uArch: core: 14, cta: 3 initialized @(4,0)
GPGPU-Sim uArch: core:  0, cta: 3 initialized @(4,0)
GPGPU-Sim uArch: core:  1, cta: 4 initialized @(5,0)
GPGPU-Sim uArch: core:  2, cta: 4 initialized @(5,0)
GPGPU-Sim uArch: core:  3, cta: 4 initialized @(5,0)
GPGPU-Sim uArch: core:  4, cta: 4 initialized @(5,0)
GPGPU-Sim uArch: core:  5, cta: 4 initialized @(5,0)
GPGPU-Sim uArch: core:  6, cta: 4 initialized @(5,0)
GPGPU-Sim uArch: core:  7, cta: 4 initialized @(5,0)
GPGPU-Sim uArch: core:  8, cta: 4 initialized @(5,0)
GPGPU-Sim uArch: core:  9, cta: 4 initialized @(5,0)
GPGPU-Sim uArch: core: 10, cta: 4 initialized @(5,0)
GPGPU-Sim uArch: core: 11, cta: 4 initialized @(5,0)
GPGPU-Sim uArch: core: 12, cta: 4 initialized @(5,0)
GPGPU-Sim uArch: core: 13, cta: 4 initialized @(5,0)
GPGPU-Sim uArch: core: 14, cta: 4 initialized @(5,0)
GPGPU-Sim uArch: core:  0, cta: 4 initialized @(5,0)
GPGPU-Sim uArch: core:  1, cta: 5 initialized @(6,0)
GPGPU-Sim uArch: core:  2, cta: 5 initialized @(6,0)
GPGPU-Sim uArch: core:  3, cta: 5 initialized @(6,0)
GPGPU-Sim uArch: core:  4, cta: 5 initialized @(6,0)
GPGPU-Sim uArch: core:  5, cta: 5 initialized @(6,0)
GPGPU-Sim uArch: core:  6, cta: 5 initialized @(6,0)
GPGPU-Sim uArch: core:  7, cta: 5 initialized @(6,0)
GPGPU-Sim uArch: core:  8, cta: 5 initialized @(6,0)
GPGPU-Sim uArch: core:  9, cta: 5 initialized @(6,0)
GPGPU-Sim uArch: core: 10, cta: 5 initialized @(6,0)
GPGPU-Sim uArch: core: 11, cta: 5 initialized @(6,0)
GPGPU-Sim uArch: core: 12, cta: 5 initialized @(6,0)
GPGPU-Sim uArch: core: 13, cta: 5 initialized @(6,0)
GPGPU-Sim uArch: core: 14, cta: 5 initialized @(6,0)
GPGPU-Sim uArch: core:  0, cta: 5 initialized @(6,0)
GPGPU-Sim PTX: 100000 instructions simulated : ctaid=(0,33,0) tid=(63,0,0)
GPGPU-Sim uArch: cycles simulated: 500  inst.: 137568 (ipc=275.1) sim_rate=137568 (inst/sec) elapsed = 0:0:00:01 / Fri Jan 16 06:20:59 2015
GPGPU-Sim PTX: 200000 instructions simulated : ctaid=(0,1,0) tid=(255,0,0)
GPGPU-Sim PTX: 300000 instructions simulated : ctaid=(0,1,0) tid=(255,0,0)
GPGPU-Sim uArch: cycles simulated: 1000  inst.: 365728 (ipc=365.7) sim_rate=182864 (inst/sec) elapsed = 0:0:00:02 / Fri Jan 16 06:21:00 2015
GPGPU-Sim PTX: 400000 instructions simulated : ctaid=(0,11,0) tid=(31,0,0)
GPGPU-Sim PTX: 500000 instructions simulated : ctaid=(0,78,0) tid=(223,0,0)
GPGPU-Sim PTX: 600000 instructions simulated : ctaid=(0,70,0) tid=(31,0,0)
GPGPU-Sim PTX: 700000 instructions simulated : ctaid=(0,54,0) tid=(63,0,0)
GPGPU-Sim PTX: 800000 instructions simulated : ctaid=(0,47,0) tid=(255,0,0)
GPGPU-Sim PTX: 900000 instructions simulated : ctaid=(0,42,0) tid=(223,0,0)
GPGPU-Sim PTX: 1000000 instructions simulated : ctaid=(0,4,0) tid=(159,0,0)
GPGPU-Sim uArch: cycles simulated: 2000  inst.: 1046944 (ipc=523.5) sim_rate=348981 (inst/sec) elapsed = 0:0:00:03 / Fri Jan 16 06:21:01 2015
GPGPU-Sim PTX: 1100000 instructions simulated : ctaid=(0,26,0) tid=(31,0,0)
GPGPU-Sim PTX: 1200000 instructions simulated : ctaid=(0,23,0) tid=(73,0,0)
GPGPU-Sim PTX: 1300000 instructions simulated : ctaid=(0,9,0) tid=(57,0,0)
GPGPU-Sim PTX: 1400000 instructions simulated : ctaid=(0,25,0) tid=(148,0,0)
GPGPU-Sim uArch: cycles simulated: 2500  inst.: 1425614 (ipc=570.2) sim_rate=356403 (inst/sec) elapsed = 0:0:00:04 / Fri Jan 16 06:21:02 2015
GPGPU-Sim PTX: 1500000 instructions simulated : ctaid=(0,26,0) tid=(93,0,0)
GPGPU-Sim PTX: 1600000 instructions simulated : ctaid=(0,7,0) tid=(63,0,0)
GPGPU-Sim PTX: 1700000 instructions simulated : ctaid=(0,22,0) tid=(76,0,0)
GPGPU-Sim PTX: 1800000 instructions simulated : ctaid=(0,12,0) tid=(176,0,0)
GPGPU-Sim uArch: cycles simulated: 3000  inst.: 1785876 (ipc=595.3) sim_rate=357175 (inst/sec) elapsed = 0:0:00:05 / Fri Jan 16 06:21:03 2015
GPGPU-Sim PTX: 1900000 instructions simulated : ctaid=(0,0,0) tid=(234,0,0)
GPGPU-Sim PTX: 2000000 instructions simulated : ctaid=(0,7,0) tid=(73,0,0)
GPGPU-Sim PTX: 2100000 instructions simulated : ctaid=(0,8,0) tid=(167,0,0)
GPGPU-Sim PTX: 2200000 instructions simulated : ctaid=(0,40,0) tid=(77,0,0)
GPGPU-Sim PTX: 2300000 instructions simulated : ctaid=(0,12,0) tid=(99,0,0)
GPGPU-Sim PTX: 2400000 instructions simulated : ctaid=(0,25,0) tid=(75,0,0)
GPGPU-Sim PTX: 2500000 instructions simulated : ctaid=(0,24,0) tid=(185,0,0)
GPGPU-Sim PTX: 2600000 instructions simulated : ctaid=(0,27,0) tid=(62,0,0)
GPGPU-Sim uArch: cycles simulated: 4000  inst.: 2482680 (ipc=620.7) sim_rate=413780 (inst/sec) elapsed = 0:0:00:06 / Fri Jan 16 06:21:04 2015
GPGPU-Sim PTX: 2700000 instructions simulated : ctaid=(0,5,0) tid=(209,0,0)
GPGPU-Sim PTX: 2800000 instructions simulated : ctaid=(0,14,0) tid=(136,0,0)
GPGPU-Sim PTX: 2900000 instructions simulated : ctaid=(0,24,0) tid=(205,0,0)
GPGPU-Sim uArch: cycles simulated: 4500  inst.: 2792722 (ipc=620.6) sim_rate=398960 (inst/sec) elapsed = 0:0:00:07 / Fri Jan 16 06:21:05 2015
GPGPU-Sim PTX: 3000000 instructions simulated : ctaid=(0,25,0) tid=(149,0,0)
GPGPU-Sim PTX: 3100000 instructions simulated : ctaid=(0,25,0) tid=(236,0,0)
GPGPU-Sim PTX: 3200000 instructions simulated : ctaid=(0,20,0) tid=(44,0,0)
GPGPU-Sim PTX: 3300000 instructions simulated : ctaid=(0,29,0) tid=(190,0,0)
GPGPU-Sim PTX: 3400000 instructions simulated : ctaid=(0,16,0) tid=(66,0,0)
GPGPU-Sim PTX: 3500000 instructions simulated : ctaid=(0,12,0) tid=(105,0,0)
GPGPU-Sim uArch: cycles simulated: 5500  inst.: 3359442 (ipc=610.8) sim_rate=419930 (inst/sec) elapsed = 0:0:00:08 / Fri Jan 16 06:21:06 2015
GPGPU-Sim PTX: 3600000 instructions simulated : ctaid=(0,9,0) tid=(139,0,0)
GPGPU-Sim PTX: 3700000 instructions simulated : ctaid=(0,7,0) tid=(84,0,0)
GPGPU-Sim PTX: 3800000 instructions simulated : ctaid=(0,21,0) tid=(26,0,0)
GPGPU-Sim PTX: 3900000 instructions simulated : ctaid=(0,16,0) tid=(140,0,0)
GPGPU-Sim PTX: 4000000 instructions simulated : ctaid=(0,37,0) tid=(180,0,0)
GPGPU-Sim uArch: cycles simulated: 6500  inst.: 3855329 (ipc=593.1) sim_rate=428369 (inst/sec) elapsed = 0:0:00:09 / Fri Jan 16 06:21:07 2015
GPGPU-Sim PTX: 4100000 instructions simulated : ctaid=(0,14,0) tid=(113,0,0)
GPGPU-Sim PTX: 4200000 instructions simulated : ctaid=(0,38,0) tid=(59,0,0)
GPGPU-Sim PTX: 4300000 instructions simulated : ctaid=(0,15,0) tid=(107,0,0)
GPGPU-Sim PTX: 4400000 instructions simulated : ctaid=(0,33,0) tid=(206,0,0)
GPGPU-Sim PTX: 4500000 instructions simulated : ctaid=(0,0,0) tid=(87,0,0)
GPGPU-Sim uArch: cycles simulated: 7500  inst.: 4320817 (ipc=576.1) sim_rate=432081 (inst/sec) elapsed = 0:0:00:10 / Fri Jan 16 06:21:08 2015
GPGPU-Sim PTX: 4600000 instructions simulated : ctaid=(0,36,0) tid=(208,0,0)
GPGPU-Sim PTX: 4700000 instructions simulated : ctaid=(0,30,0) tid=(126,0,0)
GPGPU-Sim uArch: cycles simulated: 8000  inst.: 4535553 (ipc=566.9) sim_rate=412323 (inst/sec) elapsed = 0:0:00:11 / Fri Jan 16 06:21:09 2015
GPGPU-Sim PTX: 4800000 instructions simulated : ctaid=(0,24,0) tid=(137,0,0)
GPGPU-Sim PTX: 4900000 instructions simulated : ctaid=(0,46,0) tid=(76,0,0)
GPGPU-Sim PTX: 5000000 instructions simulated : ctaid=(0,24,0) tid=(121,0,0)
GPGPU-Sim PTX: 5100000 instructions simulated : ctaid=(0,44,0) tid=(176,0,0)
GPGPU-Sim uArch: cycles simulated: 9000  inst.: 4904212 (ipc=544.9) sim_rate=408684 (inst/sec) elapsed = 0:0:00:12 / Fri Jan 16 06:21:10 2015
GPGPU-Sim PTX: 5200000 instructions simulated : ctaid=(0,37,0) tid=(132,0,0)
GPGPU-Sim PTX: 5300000 instructions simulated : ctaid=(0,8,0) tid=(100,0,0)
GPGPU-Sim PTX: 5400000 instructions simulated : ctaid=(0,46,0) tid=(53,0,0)
GPGPU-Sim PTX: 5500000 instructions simulated : ctaid=(0,45,0) tid=(153,0,0)
GPGPU-Sim uArch: cycles simulated: 10000  inst.: 5230909 (ipc=523.1) sim_rate=402377 (inst/sec) elapsed = 0:0:00:13 / Fri Jan 16 06:21:11 2015
GPGPU-Sim PTX: 5600000 instructions simulated : ctaid=(0,49,0) tid=(32,0,0)
GPGPU-Sim PTX: 5700000 instructions simulated : ctaid=(0,43,0) tid=(118,0,0)
GPGPU-Sim PTX: 5800000 instructions simulated : ctaid=(0,50,0) tid=(74,0,0)
GPGPU-Sim uArch: cycles simulated: 11000  inst.: 5516577 (ipc=501.5) sim_rate=394041 (inst/sec) elapsed = 0:0:00:14 / Fri Jan 16 06:21:12 2015
GPGPU-Sim PTX: 5900000 instructions simulated : ctaid=(0,46,0) tid=(185,0,0)
GPGPU-Sim PTX: 6000000 instructions simulated : ctaid=(0,57,0) tid=(64,0,0)
GPGPU-Sim PTX: 6100000 instructions simulated : ctaid=(0,46,0) tid=(200,0,0)
GPGPU-Sim PTX: 6200000 instructions simulated : ctaid=(0,48,0) tid=(208,0,0)
GPGPU-Sim uArch: cycles simulated: 12500  inst.: 5879188 (ipc=470.3) sim_rate=391945 (inst/sec) elapsed = 0:0:00:15 / Fri Jan 16 06:21:13 2015
GPGPU-Sim PTX: 6300000 instructions simulated : ctaid=(0,47,0) tid=(146,0,0)
GPGPU-Sim PTX: 6400000 instructions simulated : ctaid=(0,47,0) tid=(224,0,0)
GPGPU-Sim uArch: cycles simulated: 13500  inst.: 6105501 (ipc=452.3) sim_rate=381593 (inst/sec) elapsed = 0:0:00:16 / Fri Jan 16 06:21:14 2015
GPGPU-Sim PTX: 6500000 instructions simulated : ctaid=(0,10,0) tid=(132,0,0)
GPGPU-Sim PTX: 6600000 instructions simulated : ctaid=(0,63,0) tid=(21,0,0)
GPGPU-Sim uArch: cycles simulated: 14500  inst.: 6323098 (ipc=436.1) sim_rate=371946 (inst/sec) elapsed = 0:0:00:17 / Fri Jan 16 06:21:15 2015
GPGPU-Sim PTX: 6700000 instructions simulated : ctaid=(0,60,0) tid=(30,0,0)
GPGPU-Sim PTX: 6800000 instructions simulated : ctaid=(0,73,0) tid=(16,0,0)
GPGPU-Sim PTX: 6900000 instructions simulated : ctaid=(0,50,0) tid=(131,0,0)
GPGPU-Sim PTX: 7000000 instructions simulated : ctaid=(0,61,0) tid=(24,0,0)
GPGPU-Sim uArch: cycles simulated: 16000  inst.: 6652672 (ipc=415.8) sim_rate=369592 (inst/sec) elapsed = 0:0:00:18 / Fri Jan 16 06:21:16 2015
GPGPU-Sim PTX: 7100000 instructions simulated : ctaid=(0,61,0) tid=(66,0,0)
GPGPU-Sim PTX: 7200000 instructions simulated : ctaid=(0,74,0) tid=(147,0,0)
GPGPU-Sim uArch: cycles simulated: 17000  inst.: 6881104 (ipc=404.8) sim_rate=362163 (inst/sec) elapsed = 0:0:00:19 / Fri Jan 16 06:21:17 2015
GPGPU-Sim PTX: 7300000 instructions simulated : ctaid=(0,55,0) tid=(34,0,0)
GPGPU-Sim uArch: Shader 0 finished CTA #0 (17080,0), 5 CTAs running
GPGPU-Sim uArch: core:  0, cta: 0 initialized @(17081,0)
GPGPU-Sim PTX: 7400000 instructions simulated : ctaid=(0,63,0) tid=(85,0,0)
GPGPU-Sim PTX: 7500000 instructions simulated : ctaid=(0,34,0) tid=(29,0,0)
GPGPU-Sim uArch: cycles simulated: 18000  inst.: 7117036 (ipc=395.4) sim_rate=355851 (inst/sec) elapsed = 0:0:00:20 / Fri Jan 16 06:21:18 2015
GPGPU-Sim PTX: 7600000 instructions simulated : ctaid=(0,53,0) tid=(182,0,0)
GPGPU-Sim PTX: 7700000 instructions simulated : ctaid=(0,65,0) tid=(44,0,0)
GPGPU-Sim PTX: 7800000 instructions simulated : ctaid=(0,63,0) tid=(195,0,0)
GPGPU-Sim uArch: Shader 14 finished CTA #0 (18942,0), 5 CTAs running
GPGPU-Sim uArch: core: 14, cta: 0 initialized @(18943,0)
GPGPU-Sim uArch: cycles simulated: 19000  inst.: 7373319 (ipc=388.1) sim_rate=351110 (inst/sec) elapsed = 0:0:00:21 / Fri Jan 16 06:21:19 2015
GPGPU-Sim PTX: 7900000 instructions simulated : ctaid=(0,52,0) tid=(179,0,0)
GPGPU-Sim PTX: 8000000 instructions simulated : ctaid=(0,73,0) tid=(66,0,0)
GPGPU-Sim PTX: 8100000 instructions simulated : ctaid=(0,64,0) tid=(76,0,0)
GPGPU-Sim uArch: Shader 5 finished CTA #0 (20291,0), 5 CTAs running
GPGPU-Sim uArch: core:  5, cta: 0 initialized @(20292,0)
GPGPU-Sim PTX: 8200000 instructions simulated : ctaid=(0,61,0) tid=(239,0,0)
GPGPU-Sim uArch: cycles simulated: 20500  inst.: 7782639 (ipc=379.6) sim_rate=353756 (inst/sec) elapsed = 0:0:00:22 / Fri Jan 16 06:21:20 2015
GPGPU-Sim PTX: 8300000 instructions simulated : ctaid=(0,67,0) tid=(160,0,0)
GPGPU-Sim uArch: Shader 4 finished CTA #0 (20735,0), 5 CTAs running
GPGPU-Sim uArch: core:  4, cta: 0 initialized @(20736,0)
GPGPU-Sim PTX: 8400000 instructions simulated : ctaid=(0,51,0) tid=(152,0,0)
GPGPU-Sim uArch: Shader 11 finished CTA #2 (21048,0), 5 CTAs running
GPGPU-Sim uArch: core: 11, cta: 2 initialized @(21049,0)
GPGPU-Sim uArch: Shader 1 finished CTA #0 (21252,0), 5 CTAs running
GPGPU-Sim uArch: core:  1, cta: 0 initialized @(21253,0)
GPGPU-Sim PTX: 8500000 instructions simulated : ctaid=(0,6,0) tid=(93,0,0)
GPGPU-Sim uArch: cycles simulated: 21500  inst.: 8076497 (ipc=375.7) sim_rate=351152 (inst/sec) elapsed = 0:0:00:23 / Fri Jan 16 06:21:21 2015
GPGPU-Sim PTX: 8600000 instructions simulated : ctaid=(0,69,0) tid=(32,0,0)
GPGPU-Sim uArch: Shader 9 finished CTA #2 (21754,0), 5 CTAs running
GPGPU-Sim uArch: core:  9, cta: 2 initialized @(21755,0)
GPGPU-Sim uArch: Shader 0 finished CTA #2 (21829,0), 5 CTAs running
GPGPU-Sim uArch: core:  0, cta: 2 initialized @(21830,0)
GPGPU-Sim PTX: 8700000 instructions simulated : ctaid=(0,68,0) tid=(5,0,0)
GPGPU-Sim uArch: Shader 8 finished CTA #2 (21938,0), 5 CTAs running
GPGPU-Sim uArch: core:  8, cta: 2 initialized @(21939,0)
GPGPU-Sim PTX: 8800000 instructions simulated : ctaid=(0,65,0) tid=(164,0,0)
GPGPU-Sim uArch: cycles simulated: 22500  inst.: 8389747 (ipc=372.9) sim_rate=349572 (inst/sec) elapsed = 0:0:00:24 / Fri Jan 16 06:21:22 2015
GPGPU-Sim PTX: 8900000 instructions simulated : ctaid=(0,64,0) tid=(207,0,0)
GPGPU-Sim PTX: 9000000 instructions simulated : ctaid=(0,63,0) tid=(170,0,0)
GPGPU-Sim PTX: 9100000 instructions simulated : ctaid=(0,59,0) tid=(116,0,0)
GPGPU-Sim uArch: Shader 14 finished CTA #2 (23147,0), 5 CTAs running
GPGPU-Sim uArch: core: 14, cta: 2 initialized @(23148,0)
GPGPU-Sim PTX: 9200000 instructions simulated : ctaid=(0,80,0) tid=(10,0,0)
GPGPU-Sim uArch: cycles simulated: 23500  inst.: 8699161 (ipc=370.2) sim_rate=347966 (inst/sec) elapsed = 0:0:00:25 / Fri Jan 16 06:21:23 2015
GPGPU-Sim PTX: 9300000 instructions simulated : ctaid=(0,85,0) tid=(72,0,0)
GPGPU-Sim PTX: 9400000 instructions simulated : ctaid=(0,78,0) tid=(207,0,0)
GPGPU-Sim uArch: Shader 3 finished CTA #1 (24122,0), 5 CTAs running
GPGPU-Sim uArch: core:  3, cta: 1 initialized @(24123,0)
GPGPU-Sim uArch: Shader 7 finished CTA #0 (24204,0), 5 CTAs running
GPGPU-Sim uArch: core:  7, cta: 0 initialized @(24205,0)
GPGPU-Sim PTX: 9500000 instructions simulated : ctaid=(0,93,0) tid=(67,0,0)
GPGPU-Sim uArch: Shader 2 finished CTA #2 (24323,0), 5 CTAs running
GPGPU-Sim uArch: core:  2, cta: 2 initialized @(24324,0)
GPGPU-Sim uArch: Shader 13 finished CTA #1 (24386,0), 5 CTAs running
GPGPU-Sim uArch: core: 13, cta: 1 initialized @(24387,0)
GPGPU-Sim uArch: cycles simulated: 24500  inst.: 9025977 (ipc=368.4) sim_rate=347152 (inst/sec) elapsed = 0:0:00:26 / Fri Jan 16 06:21:24 2015
GPGPU-Sim uArch: Shader 6 finished CTA #0 (24500,0), 5 CTAs running
GPGPU-Sim uArch: core:  6, cta: 0 initialized @(24501,0)
GPGPU-Sim PTX: 9600000 instructions simulated : ctaid=(0,79,0) tid=(137,0,0)
GPGPU-Sim PTX: 9700000 instructions simulated : ctaid=(0,82,0) tid=(204,0,0)
GPGPU-Sim uArch: Shader 2 finished CTA #1 (24854,0), 5 CTAs running
GPGPU-Sim uArch: core:  2, cta: 1 initialized @(24855,0)
GPGPU-Sim PTX: 9800000 instructions simulated : ctaid=(0,81,0) tid=(66,0,0)
GPGPU-Sim uArch: Shader 3 finished CTA #2 (25316,0), 5 CTAs running
GPGPU-Sim uArch: core:  3, cta: 2 initialized @(25317,0)
GPGPU-Sim PTX: 9900000 instructions simulated : ctaid=(0,102,0) tid=(70,0,0)
GPGPU-Sim uArch: cycles simulated: 25500  inst.: 9362240 (ipc=367.1) sim_rate=346749 (inst/sec) elapsed = 0:0:00:27 / Fri Jan 16 06:21:25 2015
GPGPU-Sim PTX: 10000000 instructions simulated : ctaid=(0,82,0) tid=(25,0,0)
GPGPU-Sim uArch: Shader 4 finished CTA #3 (25859,0), 5 CTAs running
GPGPU-Sim uArch: core:  4, cta: 3 initialized @(25860,0)
GPGPU-Sim PTX: 10100000 instructions simulated : ctaid=(0,69,0) tid=(27,0,0)
GPGPU-Sim uArch: Shader 11 finished CTA #1 (26008,0), 5 CTAs running
GPGPU-Sim uArch: core: 11, cta: 1 initialized @(26009,0)
GPGPU-Sim uArch: Shader 2 finished CTA #3 (26230,0), 5 CTAs running
GPGPU-Sim uArch: core:  2, cta: 3 initialized @(26231,0)
GPGPU-Sim PTX: 10200000 instructions simulated : ctaid=(0,76,0) tid=(212,0,0)
GPGPU-Sim uArch: Shader 11 finished CTA #0 (26303,0), 5 CTAs running
GPGPU-Sim uArch: core: 11, cta: 0 initialized @(26304,0)
GPGPU-Sim uArch: cycles simulated: 26500  inst.: 9686204 (ipc=365.5) sim_rate=345935 (inst/sec) elapsed = 0:0:00:28 / Fri Jan 16 06:21:26 2015
GPGPU-Sim uArch: Shader 13 finished CTA #2 (26514,0), 5 CTAs running
GPGPU-Sim uArch: core: 13, cta: 2 initialized @(26515,0)
GPGPU-Sim PTX: 10300000 instructions simulated : ctaid=(0,69,0) tid=(148,0,0)
GPGPU-Sim uArch: Shader 13 finished CTA #0 (26695,0), 5 CTAs running
GPGPU-Sim uArch: core: 13, cta: 0 initialized @(26696,0)
GPGPU-Sim PTX: 10400000 instructions simulated : ctaid=(0,100,0) tid=(141,0,0)
GPGPU-Sim uArch: Shader 9 finished CTA #1 (26935,0), 5 CTAs running
GPGPU-Sim uArch: core:  9, cta: 1 initialized @(26936,0)
GPGPU-Sim PTX: 10500000 instructions simulated : ctaid=(0,64,0) tid=(109,0,0)
GPGPU-Sim PTX: 10600000 instructions simulated : ctaid=(0,105,0) tid=(18,0,0)
GPGPU-Sim uArch: cycles simulated: 27500  inst.: 10022539 (ipc=364.5) sim_rate=345604 (inst/sec) elapsed = 0:0:00:29 / Fri Jan 16 06:21:27 2015
GPGPU-Sim PTX: 10700000 instructions simulated : ctaid=(0,102,0) tid=(218,0,0)
GPGPU-Sim PTX: 10800000 instructions simulated : ctaid=(0,92,0) tid=(49,0,0)
GPGPU-Sim uArch: Shader 3 finished CTA #3 (28122,0), 5 CTAs running
GPGPU-Sim uArch: core:  3, cta: 3 initialized @(28123,0)
GPGPU-Sim PTX: 10900000 instructions simulated : ctaid=(0,65,0) tid=(145,0,0)
GPGPU-Sim uArch: Shader 5 finished CTA #2 (28263,0), 5 CTAs running
GPGPU-Sim uArch: core:  5, cta: 2 initialized @(28264,0)
GPGPU-Sim uArch: cycles simulated: 28500  inst.: 10351552 (ipc=363.2) sim_rate=345051 (inst/sec) elapsed = 0:0:00:30 / Fri Jan 16 06:21:28 2015
GPGPU-Sim PTX: 11000000 instructions simulated : ctaid=(0,91,0) tid=(150,0,0)
GPGPU-Sim uArch: Shader 10 finished CTA #0 (28674,0), 5 CTAs running
GPGPU-Sim uArch: core: 10, cta: 0 initialized @(28675,0)
GPGPU-Sim PTX: 11100000 instructions simulated : ctaid=(0,69,0) tid=(253,0,0)
GPGPU-Sim uArch: Shader 7 finished CTA #1 (29068,0), 5 CTAs running
GPGPU-Sim uArch: core:  7, cta: 1 initialized @(29069,0)
GPGPU-Sim PTX: 11200000 instructions simulated : ctaid=(0,79,0) tid=(46,0,0)
GPGPU-Sim uArch: Shader 10 finished CTA #1 (29134,0), 5 CTAs running
GPGPU-Sim uArch: core: 10, cta: 1 initialized @(29135,0)
GPGPU-Sim PTX: 11300000 instructions simulated : ctaid=(0,85,0) tid=(180,0,0)
GPGPU-Sim uArch: cycles simulated: 29500  inst.: 10687378 (ipc=362.3) sim_rate=344754 (inst/sec) elapsed = 0:0:00:31 / Fri Jan 16 06:21:29 2015
GPGPU-Sim PTX: 11400000 instructions simulated : ctaid=(0,83,0) tid=(216,0,0)
GPGPU-Sim uArch: Shader 12 finished CTA #1 (29735,0), 5 CTAs running
GPGPU-Sim uArch: core: 12, cta: 1 initialized @(29736,0)
GPGPU-Sim PTX: 11500000 instructions simulated : ctaid=(0,78,0) tid=(174,0,0)
GPGPU-Sim uArch: Shader 10 finished CTA #2 (30143,0), 5 CTAs running
GPGPU-Sim uArch: core: 10, cta: 2 initialized @(30144,0)
GPGPU-Sim PTX: 11600000 instructions simulated : ctaid=(0,63,0) tid=(181,0,0)
GPGPU-Sim PTX: 11700000 instructions simulated : ctaid=(0,77,0) tid=(190,0,0)
GPGPU-Sim uArch: cycles simulated: 30500  inst.: 11028494 (ipc=361.6) sim_rate=344640 (inst/sec) elapsed = 0:0:00:32 / Fri Jan 16 06:21:30 2015
GPGPU-Sim PTX: 11800000 instructions simulated : ctaid=(0,86,0) tid=(31,0,0)
GPGPU-Sim uArch: Shader 6 finished CTA #1 (31030,0), 5 CTAs running
GPGPU-Sim uArch: core:  6, cta: 1 initialized @(31031,0)
GPGPU-Sim PTX: 11900000 instructions simulated : ctaid=(0,79,0) tid=(206,0,0)
GPGPU-Sim uArch: Shader 12 finished CTA #0 (31313,0), 5 CTAs running
GPGPU-Sim uArch: core: 12, cta: 0 initialized @(31314,0)
GPGPU-Sim PTX: 12000000 instructions simulated : ctaid=(0,87,0) tid=(84,0,0)
GPGPU-Sim uArch: cycles simulated: 31500  inst.: 11365098 (ipc=360.8) sim_rate=344396 (inst/sec) elapsed = 0:0:00:33 / Fri Jan 16 06:21:31 2015
GPGPU-Sim uArch: Shader 6 finished CTA #3 (31589,0), 5 CTAs running
GPGPU-Sim uArch: core:  6, cta: 3 initialized @(31590,0)
GPGPU-Sim PTX: 12100000 instructions simulated : ctaid=(0,76,0) tid=(47,0,0)
GPGPU-Sim uArch: Shader 12 finished CTA #2 (31634,0), 5 CTAs running
GPGPU-Sim uArch: core: 12, cta: 2 initialized @(31635,0)
GPGPU-Sim PTX: 12200000 instructions simulated : ctaid=(0,69,0) tid=(242,0,0)
GPGPU-Sim uArch: Shader 9 finished CTA #0 (32125,0), 5 CTAs running
GPGPU-Sim uArch: core:  9, cta: 0 initialized @(32126,0)
GPGPU-Sim PTX: 12300000 instructions simulated : ctaid=(0,84,0) tid=(101,0,0)
GPGPU-Sim uArch: Shader 8 finished CTA #0 (32257,0), 5 CTAs running
GPGPU-Sim uArch: core:  8, cta: 0 initialized @(32258,0)
GPGPU-Sim uArch: Shader 1 finished CTA #1 (32354,0), 5 CTAs running
GPGPU-Sim uArch: core:  1, cta: 1 initialized @(32355,0)
GPGPU-Sim PTX: 12400000 instructions simulated : ctaid=(0,81,0) tid=(215,0,0)
GPGPU-Sim uArch: cycles simulated: 32500  inst.: 11702638 (ipc=360.1) sim_rate=344195 (inst/sec) elapsed = 0:0:00:34 / Fri Jan 16 06:21:32 2015
GPGPU-Sim PTX: 12500000 instructions simulated : ctaid=(0,103,0) tid=(5,0,0)
GPGPU-Sim uArch: Shader 5 finished CTA #1 (32757,0), 5 CTAs running
GPGPU-Sim uArch: core:  5, cta: 1 initialized @(32758,0)
GPGPU-Sim uArch: Shader 7 finished CTA #3 (32835,0), 5 CTAs running
GPGPU-Sim uArch: core:  7, cta: 3 initialized @(32836,0)
GPGPU-Sim uArch: Shader 2 finished CTA #0 (32990,0), 5 CTAs running
GPGPU-Sim uArch: core:  2, cta: 0 initialized @(32991,0)
GPGPU-Sim PTX: 12600000 instructions simulated : ctaid=(0,117,0) tid=(4,0,0)
GPGPU-Sim uArch: Shader 7 finished CTA #2 (33151,0), 5 CTAs running
GPGPU-Sim uArch: core:  7, cta: 2 initialized @(33152,0)
GPGPU-Sim uArch: Shader 3 finished CTA #0 (33170,0), 5 CTAs running
GPGPU-Sim uArch: core:  3, cta: 0 initialized @(33171,0)
GPGPU-Sim uArch: Shader 0 finished CTA #1 (33174,0), 5 CTAs running
GPGPU-Sim uArch: core:  0, cta: 1 initialized @(33175,0)
GPGPU-Sim PTX: 12700000 instructions simulated : ctaid=(0,73,0) tid=(105,0,0)
GPGPU-Sim uArch: Shader 3 finished CTA #4 (33299,0), 5 CTAs running
GPGPU-Sim uArch: core:  3, cta: 4 initialized @(33300,0)
GPGPU-Sim uArch: cycles simulated: 33500  inst.: 12041810 (ipc=359.5) sim_rate=344051 (inst/sec) elapsed = 0:0:00:35 / Fri Jan 16 06:21:33 2015
GPGPU-Sim PTX: 12800000 instructions simulated : ctaid=(0,107,0) tid=(5,0,0)
GPGPU-Sim uArch: Shader 1 finished CTA #3 (33571,0), 5 CTAs running
GPGPU-Sim uArch: core:  1, cta: 3 initialized @(33572,0)
GPGPU-Sim PTX: 12900000 instructions simulated : ctaid=(0,92,0) tid=(89,0,0)
GPGPU-Sim uArch: Shader 10 finished CTA #3 (33972,0), 5 CTAs running
GPGPU-Sim uArch: core: 10, cta: 3 initialized @(33973,0)
GPGPU-Sim PTX: 13000000 instructions simulated : ctaid=(0,83,0) tid=(252,0,0)
GPGPU-Sim PTX: 13100000 instructions simulated : ctaid=(0,84,0) tid=(241,0,0)
GPGPU-Sim uArch: Shader 4 finished CTA #2 (34492,0), 5 CTAs running
GPGPU-Sim uArch: core:  4, cta: 2 initialized @(34493,0)
GPGPU-Sim uArch: cycles simulated: 34500  inst.: 12369177 (ipc=358.5) sim_rate=343588 (inst/sec) elapsed = 0:0:00:36 / Fri Jan 16 06:21:34 2015
GPGPU-Sim PTX: 13200000 instructions simulated : ctaid=(0,85,0) tid=(40,0,0)
GPGPU-Sim uArch: Shader 4 finished CTA #1 (34841,0), 5 CTAs running
GPGPU-Sim uArch: core:  4, cta: 1 initialized @(34842,0)
GPGPU-Sim PTX: 13300000 instructions simulated : ctaid=(0,102,0) tid=(162,0,0)
GPGPU-Sim uArch: Shader 14 finished CTA #1 (35290,0), 5 CTAs running
GPGPU-Sim uArch: core: 14, cta: 1 initialized @(35291,0)
GPGPU-Sim PTX: 13400000 instructions simulated : ctaid=(0,100,0) tid=(206,0,0)
GPGPU-Sim uArch: cycles simulated: 35500  inst.: 12669666 (ipc=356.9) sim_rate=342423 (inst/sec) elapsed = 0:0:00:37 / Fri Jan 16 06:21:35 2015
GPGPU-Sim PTX: 13500000 instructions simulated : ctaid=(0,101,0) tid=(207,0,0)
GPGPU-Sim uArch: Shader 1 finished CTA #2 (35885,0), 5 CTAs running
GPGPU-Sim uArch: core:  1, cta: 2 initialized @(35886,0)
GPGPU-Sim PTX: 13600000 instructions simulated : ctaid=(0,93,0) tid=(199,0,0)
GPGPU-Sim PTX: 13700000 instructions simulated : ctaid=(0,94,0) tid=(95,0,0)
GPGPU-Sim uArch: Shader 11 finished CTA #3 (36478,0), 5 CTAs running
GPGPU-Sim uArch: core: 11, cta: 3 initialized @(36479,0)
GPGPU-Sim uArch: cycles simulated: 36500  inst.: 12956960 (ipc=355.0) sim_rate=340972 (inst/sec) elapsed = 0:0:00:38 / Fri Jan 16 06:21:36 2015
GPGPU-Sim uArch: Shader 8 finished CTA #1 (36625,0), 5 CTAs running
GPGPU-Sim uArch: core:  8, cta: 1 initialized @(36626,0)
GPGPU-Sim PTX: 13800000 instructions simulated : ctaid=(0,75,0) tid=(235,0,0)
GPGPU-Sim uArch: Shader 5 finished CTA #3 (36651,0), 5 CTAs running
GPGPU-Sim uArch: core:  5, cta: 3 initialized @(36652,0)
GPGPU-Sim PTX: 13900000 instructions simulated : ctaid=(0,95,0) tid=(67,0,0)
GPGPU-Sim PTX: 14000000 instructions simulated : ctaid=(0,94,0) tid=(153,0,0)
GPGPU-Sim uArch: cycles simulated: 37500  inst.: 13245607 (ipc=353.2) sim_rate=339630 (inst/sec) elapsed = 0:0:00:39 / Fri Jan 16 06:21:37 2015
GPGPU-Sim PTX: 14100000 instructions simulated : ctaid=(0,88,0) tid=(50,0,0)
GPGPU-Sim PTX: 14200000 instructions simulated : ctaid=(0,95,0) tid=(123,0,0)
GPGPU-Sim PTX: 14300000 instructions simulated : ctaid=(0,92,0) tid=(84,0,0)
GPGPU-Sim uArch: cycles simulated: 38500  inst.: 13522079 (ipc=351.2) sim_rate=338051 (inst/sec) elapsed = 0:0:00:40 / Fri Jan 16 06:21:38 2015
GPGPU-Sim uArch: Shader 6 finished CTA #2 (38593,0), 5 CTAs running
GPGPU-Sim uArch: core:  6, cta: 2 initialized @(38594,0)
GPGPU-Sim PTX: 14400000 instructions simulated : ctaid=(0,90,0) tid=(198,0,0)
GPGPU-Sim uArch: Shader 13 finished CTA #3 (38898,0), 5 CTAs running
GPGPU-Sim uArch: core: 13, cta: 3 initialized @(38899,0)
GPGPU-Sim PTX: 14500000 instructions simulated : ctaid=(0,105,0) tid=(52,0,0)
GPGPU-Sim PTX: 14600000 instructions simulated : ctaid=(0,59,0) tid=(161,0,0)
GPGPU-Sim uArch: cycles simulated: 39500  inst.: 13801538 (ipc=349.4) sim_rate=336622 (inst/sec) elapsed = 0:0:00:41 / Fri Jan 16 06:21:39 2015
GPGPU-Sim PTX: 14700000 instructions simulated : ctaid=(0,92,0) tid=(208,0,0)
GPGPU-Sim PTX: 14800000 instructions simulated : ctaid=(0,88,0) tid=(79,0,0)
GPGPU-Sim PTX: 14900000 instructions simulated : ctaid=(0,81,0) tid=(252,0,0)
GPGPU-Sim uArch: cycles simulated: 40500  inst.: 14072816 (ipc=347.5) sim_rate=335067 (inst/sec) elapsed = 0:0:00:42 / Fri Jan 16 06:21:40 2015
GPGPU-Sim uArch: Shader 8 finished CTA #3 (40544,0), 5 CTAs running
GPGPU-Sim uArch: core:  8, cta: 3 initialized @(40545,0)
GPGPU-Sim PTX: 15000000 instructions simulated : ctaid=(0,116,0) tid=(134,0,0)
GPGPU-Sim PTX: 15100000 instructions simulated : ctaid=(0,81,0) tid=(251,0,0)
GPGPU-Sim PTX: 15200000 instructions simulated : ctaid=(0,75,0) tid=(227,0,0)
GPGPU-Sim uArch: cycles simulated: 41500  inst.: 14346194 (ipc=345.7) sim_rate=333632 (inst/sec) elapsed = 0:0:00:43 / Fri Jan 16 06:21:41 2015
GPGPU-Sim uArch: Shader 9 finished CTA #3 (41704,0), 5 CTAs running
GPGPU-Sim uArch: core:  9, cta: 3 initialized @(41705,0)
GPGPU-Sim PTX: 15300000 instructions simulated : ctaid=(0,96,0) tid=(141,0,0)
GPGPU-Sim PTX: 15400000 instructions simulated : ctaid=(0,76,0) tid=(52,0,0)
GPGPU-Sim uArch: Shader 1 finished CTA #4 (42431,0), 5 CTAs running
GPGPU-Sim uArch: core:  1, cta: 4 initialized @(42432,0)
GPGPU-Sim PTX: 15500000 instructions simulated : ctaid=(0,101,0) tid=(112,0,0)
GPGPU-Sim uArch: Shader 5 finished CTA #4 (42492,0), 5 CTAs running
GPGPU-Sim uArch: core:  5, cta: 4 initialized @(42493,0)
GPGPU-Sim uArch: cycles simulated: 42500  inst.: 14609189 (ipc=343.7) sim_rate=332027 (inst/sec) elapsed = 0:0:00:44 / Fri Jan 16 06:21:42 2015
GPGPU-Sim PTX: 15600000 instructions simulated : ctaid=(0,94,0) tid=(219,0,0)
GPGPU-Sim PTX: 15700000 instructions simulated : ctaid=(0,95,0) tid=(213,0,0)
GPGPU-Sim uArch: Shader 12 finished CTA #3 (43398,0), 5 CTAs running
GPGPU-Sim uArch: core: 12, cta: 3 initialized @(43399,0)
GPGPU-Sim PTX: 15800000 instructions simulated : ctaid=(0,89,0) tid=(164,0,0)
GPGPU-Sim uArch: cycles simulated: 43500  inst.: 14880690 (ipc=342.1) sim_rate=330682 (inst/sec) elapsed = 0:0:00:45 / Fri Jan 16 06:21:43 2015
GPGPU-Sim PTX: 15900000 instructions simulated : ctaid=(0,127,0) tid=(193,0,0)
GPGPU-Sim uArch: Shader 0 finished CTA #3 (43936,0), 5 CTAs running
GPGPU-Sim uArch: core:  0, cta: 3 initialized @(43937,0)
GPGPU-Sim uArch: Shader 2 finished CTA #4 (43988,0), 5 CTAs running
GPGPU-Sim uArch: core:  2, cta: 4 initialized @(43989,0)
GPGPU-Sim PTX: 16000000 instructions simulated : ctaid=(0,122,0) tid=(84,0,0)
GPGPU-Sim uArch: cycles simulated: 44500  inst.: 15156697 (ipc=340.6) sim_rate=329493 (inst/sec) elapsed = 0:0:00:46 / Fri Jan 16 06:21:44 2015
GPGPU-Sim PTX: 16100000 instructions simulated : ctaid=(0,109,0) tid=(26,0,0)
GPGPU-Sim PTX: 16200000 instructions simulated : ctaid=(0,96,0) tid=(221,0,0)
GPGPU-Sim PTX: 16300000 instructions simulated : ctaid=(0,111,0) tid=(7,0,0)
GPGPU-Sim uArch: cycles simulated: 45500  inst.: 15429577 (ipc=339.1) sim_rate=328288 (inst/sec) elapsed = 0:0:00:47 / Fri Jan 16 06:21:45 2015
GPGPU-Sim uArch: Shader 4 finished CTA #4 (45529,0), 5 CTAs running
GPGPU-Sim uArch: core:  4, cta: 4 initialized @(45530,0)
GPGPU-Sim PTX: 16400000 instructions simulated : ctaid=(0,98,0) tid=(54,0,0)
GPGPU-Sim PTX: 16500000 instructions simulated : ctaid=(0,92,0) tid=(202,0,0)
GPGPU-Sim PTX: 16600000 instructions simulated : ctaid=(0,89,0) tid=(191,0,0)
GPGPU-Sim uArch: cycles simulated: 46500  inst.: 15696577 (ipc=337.6) sim_rate=327012 (inst/sec) elapsed = 0:0:00:48 / Fri Jan 16 06:21:46 2015
GPGPU-Sim uArch: Shader 9 finished CTA #4 (46564,0), 5 CTAs running
GPGPU-Sim uArch: core:  9, cta: 4 initialized @(46565,0)
GPGPU-Sim PTX: 16700000 instructions simulated : ctaid=(0,117,0) tid=(71,0,0)
GPGPU-Sim PTX: 16800000 instructions simulated : ctaid=(0,116,0) tid=(64,0,0)
GPGPU-Sim PTX: 16900000 instructions simulated : ctaid=(0,87,0) tid=(191,0,0)
GPGPU-Sim uArch: Shader 14 finished CTA #3 (47360,0), 5 CTAs running
GPGPU-Sim uArch: core: 14, cta: 3 initialized @(47361,0)
GPGPU-Sim uArch: cycles simulated: 47500  inst.: 15967217 (ipc=336.2) sim_rate=325861 (inst/sec) elapsed = 0:0:00:49 / Fri Jan 16 06:21:47 2015
GPGPU-Sim PTX: 17000000 instructions simulated : ctaid=(0,107,0) tid=(61,0,0)
GPGPU-Sim PTX: 17100000 instructions simulated : ctaid=(0,117,0) tid=(146,0,0)
GPGPU-Sim PTX: 17200000 instructions simulated : ctaid=(0,132,0) tid=(1,0,0)
GPGPU-Sim uArch: Shader 7 finished CTA #4 (48460,0), 5 CTAs running
GPGPU-Sim uArch: core:  7, cta: 4 initialized @(48461,0)
GPGPU-Sim uArch: cycles simulated: 48500  inst.: 16239966 (ipc=334.8) sim_rate=324799 (inst/sec) elapsed = 0:0:00:50 / Fri Jan 16 06:21:48 2015
GPGPU-Sim PTX: 17300000 instructions simulated : ctaid=(0,116,0) tid=(194,0,0)
GPGPU-Sim PTX: 17400000 instructions simulated : ctaid=(0,96,0) tid=(208,0,0)
GPGPU-Sim PTX: 17500000 instructions simulated : ctaid=(0,119,0) tid=(195,0,0)
GPGPU-Sim uArch: cycles simulated: 49500  inst.: 16523789 (ipc=333.8) sim_rate=323995 (inst/sec) elapsed = 0:0:00:51 / Fri Jan 16 06:21:49 2015
GPGPU-Sim PTX: 17600000 instructions simulated : ctaid=(0,121,0) tid=(214,0,0)
GPGPU-Sim PTX: 17700000 instructions simulated : ctaid=(0,114,0) tid=(136,0,0)
GPGPU-Sim PTX: 17800000 instructions simulated : ctaid=(0,96,0) tid=(206,0,0)
GPGPU-Sim uArch: cycles simulated: 50500  inst.: 16808239 (ipc=332.8) sim_rate=323235 (inst/sec) elapsed = 0:0:00:52 / Fri Jan 16 06:21:50 2015
GPGPU-Sim uArch: Shader 8 finished CTA #4 (50638,0), 5 CTAs running
GPGPU-Sim uArch: core:  8, cta: 4 initialized @(50639,0)
GPGPU-Sim PTX: 17900000 instructions simulated : ctaid=(0,117,0) tid=(83,0,0)
GPGPU-Sim PTX: 18000000 instructions simulated : ctaid=(0,126,0) tid=(65,0,0)
GPGPU-Sim PTX: 18100000 instructions simulated : ctaid=(0,118,0) tid=(57,0,0)
GPGPU-Sim uArch: cycles simulated: 51500  inst.: 17111705 (ipc=332.3) sim_rate=322862 (inst/sec) elapsed = 0:0:00:53 / Fri Jan 16 06:21:51 2015
GPGPU-Sim PTX: 18200000 instructions simulated : ctaid=(0,103,0) tid=(203,0,0)
GPGPU-Sim PTX: 18300000 instructions simulated : ctaid=(0,151,0) tid=(25,0,0)
GPGPU-Sim PTX: 18400000 instructions simulated : ctaid=(0,108,0) tid=(217,0,0)
GPGPU-Sim uArch: cycles simulated: 52500  inst.: 17402294 (ipc=331.5) sim_rate=322264 (inst/sec) elapsed = 0:0:00:54 / Fri Jan 16 06:21:52 2015
GPGPU-Sim PTX: 18500000 instructions simulated : ctaid=(0,119,0) tid=(122,0,0)
GPGPU-Sim PTX: 18600000 instructions simulated : ctaid=(0,103,0) tid=(185,0,0)
GPGPU-Sim uArch: Shader 13 finished CTA #5 (53179,0), 5 CTAs running
GPGPU-Sim uArch: core: 13, cta: 5 initialized @(53180,0)
GPGPU-Sim PTX: 18700000 instructions simulated : ctaid=(0,132,0) tid=(83,0,0)
GPGPU-Sim uArch: cycles simulated: 53500  inst.: 17691889 (ipc=330.7) sim_rate=321670 (inst/sec) elapsed = 0:0:00:55 / Fri Jan 16 06:21:53 2015
GPGPU-Sim PTX: 18800000 instructions simulated : ctaid=(0,138,0) tid=(19,0,0)
GPGPU-Sim uArch: Shader 10 finished CTA #4 (53530,0), 5 CTAs running
GPGPU-Sim uArch: core: 10, cta: 4 initialized @(53531,0)
GPGPU-Sim PTX: 18900000 instructions simulated : ctaid=(0,98,0) tid=(193,0,0)
GPGPU-Sim uArch: Shader 12 finished CTA #4 (53913,0), 5 CTAs running
GPGPU-Sim uArch: core: 12, cta: 4 initialized @(53914,0)
GPGPU-Sim PTX: 19000000 instructions simulated : ctaid=(0,112,0) tid=(86,0,0)
GPGPU-Sim uArch: Shader 6 finished CTA #4 (54359,0), 5 CTAs running
GPGPU-Sim uArch: core:  6, cta: 4 initialized @(54360,0)
GPGPU-Sim uArch: Shader 3 finished CTA #1 (54399,0), 5 CTAs running
GPGPU-Sim uArch: core:  3, cta: 1 initialized @(54400,0)
GPGPU-Sim PTX: 19100000 instructions simulated : ctaid=(0,121,0) tid=(213,0,0)
GPGPU-Sim uArch: cycles simulated: 54500  inst.: 18000060 (ipc=330.3) sim_rate=321429 (inst/sec) elapsed = 0:0:00:56 / Fri Jan 16 06:21:54 2015
GPGPU-Sim PTX: 19200000 instructions simulated : ctaid=(0,133,0) tid=(208,0,0)
GPGPU-Sim PTX: 19300000 instructions simulated : ctaid=(0,108,0) tid=(193,0,0)
GPGPU-Sim PTX: 19400000 instructions simulated : ctaid=(0,90,0) tid=(126,0,0)
GPGPU-Sim uArch: cycles simulated: 55500  inst.: 18300564 (ipc=329.7) sim_rate=321062 (inst/sec) elapsed = 0:0:00:57 / Fri Jan 16 06:21:55 2015
GPGPU-Sim PTX: 19500000 instructions simulated : ctaid=(0,113,0) tid=(130,0,0)
GPGPU-Sim uArch: Shader 11 finished CTA #4 (55736,0), 5 CTAs running
GPGPU-Sim uArch: core: 11, cta: 4 initialized @(55737,0)
GPGPU-Sim PTX: 19600000 instructions simulated : ctaid=(0,129,0) tid=(158,0,0)
GPGPU-Sim PTX: 19700000 instructions simulated : ctaid=(0,111,0) tid=(197,0,0)
GPGPU-Sim uArch: cycles simulated: 56500  inst.: 18602486 (ipc=329.2) sim_rate=320732 (inst/sec) elapsed = 0:0:00:58 / Fri Jan 16 06:21:56 2015
GPGPU-Sim PTX: 19800000 instructions simulated : ctaid=(0,98,0) tid=(188,0,0)
GPGPU-Sim PTX: 19900000 instructions simulated : ctaid=(0,113,0) tid=(249,0,0)
GPGPU-Sim uArch: Shader 3 finished CTA #5 (57146,0), 5 CTAs running
GPGPU-Sim uArch: core:  3, cta: 5 initialized @(57147,0)
GPGPU-Sim PTX: 20000000 instructions simulated : ctaid=(0,119,0) tid=(228,0,0)
GPGPU-Sim uArch: Shader 0 finished CTA #4 (57471,0), 5 CTAs running
GPGPU-Sim uArch: core:  0, cta: 4 initialized @(57472,0)
GPGPU-Sim uArch: cycles simulated: 57500  inst.: 18889514 (ipc=328.5) sim_rate=320161 (inst/sec) elapsed = 0:0:00:59 / Fri Jan 16 06:21:57 2015
GPGPU-Sim PTX: 20100000 instructions simulated : ctaid=(0,128,0) tid=(129,0,0)
GPGPU-Sim PTX: 20200000 instructions simulated : ctaid=(0,108,0) tid=(115,0,0)
GPGPU-Sim uArch: Shader 9 finished CTA #5 (57948,0), 5 CTAs running
GPGPU-Sim uArch: core:  9, cta: 5 initialized @(57949,0)
GPGPU-Sim uArch: Shader 1 finished CTA #5 (57963,0), 5 CTAs running
GPGPU-Sim uArch: core:  1, cta: 5 initialized @(57964,0)
GPGPU-Sim PTX: 20300000 instructions simulated : ctaid=(0,115,0) tid=(221,0,0)
GPGPU-Sim uArch: cycles simulated: 58500  inst.: 19185982 (ipc=328.0) sim_rate=319766 (inst/sec) elapsed = 0:0:01:00 / Fri Jan 16 06:21:58 2015
GPGPU-Sim PTX: 20400000 instructions simulated : ctaid=(0,92,0) tid=(131,0,0)
GPGPU-Sim PTX: 20500000 instructions simulated : ctaid=(0,125,0) tid=(16,0,0)
GPGPU-Sim uArch: cycles simulated: 59000  inst.: 19330417 (ipc=327.6) sim_rate=316892 (inst/sec) elapsed = 0:0:01:01 / Fri Jan 16 06:21:59 2015
GPGPU-Sim PTX: 20600000 instructions simulated : ctaid=(0,131,0) tid=(1,0,0)
GPGPU-Sim uArch: Shader 14 finished CTA #4 (59348,0), 5 CTAs running
GPGPU-Sim uArch: core: 14, cta: 4 initialized @(59349,0)
GPGPU-Sim PTX: 20700000 instructions simulated : ctaid=(0,115,0) tid=(79,0,0)
GPGPU-Sim PTX: 20800000 instructions simulated : ctaid=(0,151,0) tid=(92,0,0)
GPGPU-Sim uArch: cycles simulated: 60000  inst.: 19623756 (ipc=327.1) sim_rate=316512 (inst/sec) elapsed = 0:0:01:02 / Fri Jan 16 06:22:00 2015
GPGPU-Sim PTX: 20900000 instructions simulated : ctaid=(0,127,0) tid=(24,0,0)
GPGPU-Sim PTX: 21000000 instructions simulated : ctaid=(0,119,0) tid=(242,0,0)
GPGPU-Sim PTX: 21100000 instructions simulated : ctaid=(0,90,0) tid=(163,0,0)
GPGPU-Sim uArch: Shader 8 finished CTA #5 (60862,0), 5 CTAs running
GPGPU-Sim uArch: core:  8, cta: 5 initialized @(60863,0)
GPGPU-Sim uArch: cycles simulated: 61000  inst.: 19907957 (ipc=326.4) sim_rate=315999 (inst/sec) elapsed = 0:0:01:03 / Fri Jan 16 06:22:01 2015
GPGPU-Sim uArch: Shader 13 finished CTA #4 (61064,0), 5 CTAs running
GPGPU-Sim uArch: core: 13, cta: 4 initialized @(61065,0)
GPGPU-Sim PTX: 21200000 instructions simulated : ctaid=(0,140,0) tid=(4,0,0)
GPGPU-Sim PTX: 21300000 instructions simulated : ctaid=(0,118,0) tid=(211,0,0)
GPGPU-Sim uArch: Shader 6 finished CTA #5 (61620,0), 5 CTAs running
GPGPU-Sim uArch: core:  6, cta: 5 initialized @(61621,0)
GPGPU-Sim uArch: Shader 4 finished CTA #5 (61684,0), 5 CTAs running
GPGPU-Sim uArch: core:  4, cta: 5 initialized @(61685,0)
GPGPU-Sim PTX: 21400000 instructions simulated : ctaid=(0,111,0) tid=(169,0,0)
GPGPU-Sim uArch: Shader 2 finished CTA #5 (61819,0), 5 CTAs running
GPGPU-Sim uArch: core:  2, cta: 5 initialized @(61820,0)
GPGPU-Sim uArch: cycles simulated: 62000  inst.: 20201352 (ipc=325.8) sim_rate=315646 (inst/sec) elapsed = 0:0:01:04 / Fri Jan 16 06:22:02 2015
GPGPU-Sim PTX: 21500000 instructions simulated : ctaid=(0,130,0) tid=(91,0,0)
GPGPU-Sim uArch: Shader 7 finished CTA #5 (62316,0), 5 CTAs running
GPGPU-Sim uArch: core:  7, cta: 5 initialized @(62317,0)
GPGPU-Sim PTX: 21600000 instructions simulated : ctaid=(0,111,0) tid=(187,0,0)
GPGPU-Sim PTX: 21700000 instructions simulated : ctaid=(0,143,0) tid=(31,0,0)
GPGPU-Sim uArch: Shader 5 finished CTA #5 (62905,0), 5 CTAs running
GPGPU-Sim uArch: core:  5, cta: 5 initialized @(62906,0)
GPGPU-Sim uArch: cycles simulated: 63000  inst.: 20488171 (ipc=325.2) sim_rate=315202 (inst/sec) elapsed = 0:0:01:05 / Fri Jan 16 06:22:03 2015
GPGPU-Sim PTX: 21800000 instructions simulated : ctaid=(0,137,0) tid=(61,0,0)
GPGPU-Sim PTX: 21900000 instructions simulated : ctaid=(0,128,0) tid=(229,0,0)
GPGPU-Sim PTX: 22000000 instructions simulated : ctaid=(0,94,0) tid=(225,0,0)
GPGPU-Sim uArch: cycles simulated: 64000  inst.: 20767608 (ipc=324.5) sim_rate=314660 (inst/sec) elapsed = 0:0:01:06 / Fri Jan 16 06:22:04 2015
GPGPU-Sim PTX: 22100000 instructions simulated : ctaid=(0,112,0) tid=(74,0,0)
GPGPU-Sim PTX: 22200000 instructions simulated : ctaid=(0,125,0) tid=(210,0,0)
GPGPU-Sim PTX: 22300000 instructions simulated : ctaid=(0,125,0) tid=(214,0,0)
GPGPU-Sim uArch: cycles simulated: 65000  inst.: 21045397 (ipc=323.8) sim_rate=314110 (inst/sec) elapsed = 0:0:01:07 / Fri Jan 16 06:22:05 2015
GPGPU-Sim PTX: 22400000 instructions simulated : ctaid=(0,130,0) tid=(155,0,0)
GPGPU-Sim uArch: Shader 6 finished CTA #0 (65312,0), 5 CTAs running
GPGPU-Sim uArch: core:  6, cta: 0 initialized @(65313,0)
GPGPU-Sim PTX: 22500000 instructions simulated : ctaid=(0,112,0) tid=(74,0,0)
GPGPU-Sim PTX: 22600000 instructions simulated : ctaid=(0,118,0) tid=(195,0,0)
GPGPU-Sim uArch: Shader 5 finished CTA #0 (65916,0), 5 CTAs running
GPGPU-Sim uArch: core:  5, cta: 0 initialized @(65917,0)
GPGPU-Sim uArch: cycles simulated: 66000  inst.: 21325934 (ipc=323.1) sim_rate=313616 (inst/sec) elapsed = 0:0:01:08 / Fri Jan 16 06:22:06 2015
GPGPU-Sim PTX: 22700000 instructions simulated : ctaid=(0,126,0) tid=(125,0,0)
GPGPU-Sim PTX: 22800000 instructions simulated : ctaid=(0,165,0) tid=(77,0,0)
GPGPU-Sim PTX: 22900000 instructions simulated : ctaid=(0,138,0) tid=(145,0,0)
GPGPU-Sim uArch: Shader 2 finished CTA #2 (66814,0), 5 CTAs running
GPGPU-Sim uArch: core:  2, cta: 2 initialized @(66815,0)
GPGPU-Sim uArch: cycles simulated: 67000  inst.: 21624567 (ipc=322.8) sim_rate=313399 (inst/sec) elapsed = 0:0:01:09 / Fri Jan 16 06:22:07 2015
GPGPU-Sim PTX: 23000000 instructions simulated : ctaid=(0,110,0) tid=(204,0,0)
GPGPU-Sim PTX: 23100000 instructions simulated : ctaid=(0,124,0) tid=(134,0,0)
GPGPU-Sim PTX: 23200000 instructions simulated : ctaid=(0,128,0) tid=(99,0,0)
GPGPU-Sim uArch: cycles simulated: 68000  inst.: 21919332 (ipc=322.3) sim_rate=313133 (inst/sec) elapsed = 0:0:01:10 / Fri Jan 16 06:22:08 2015
GPGPU-Sim PTX: 23300000 instructions simulated : ctaid=(0,142,0) tid=(198,0,0)
GPGPU-Sim uArch: Shader 4 finished CTA #0 (68242,0), 5 CTAs running
GPGPU-Sim uArch: core:  4, cta: 0 initialized @(68243,0)
GPGPU-Sim PTX: 23400000 instructions simulated : ctaid=(0,144,0) tid=(64,0,0)
GPGPU-Sim uArch: Shader 13 finished CTA #1 (68527,0), 5 CTAs running
GPGPU-Sim uArch: core: 13, cta: 1 initialized @(68528,0)
GPGPU-Sim PTX: 23500000 instructions simulated : ctaid=(0,140,0) tid=(92,0,0)
GPGPU-Sim PTX: 23600000 instructions simulated : ctaid=(0,126,0) tid=(230,0,0)
GPGPU-Sim uArch: cycles simulated: 69000  inst.: 22231349 (ipc=322.2) sim_rate=313117 (inst/sec) elapsed = 0:0:01:11 / Fri Jan 16 06:22:09 2015
GPGPU-Sim uArch: Shader 10 finished CTA #5 (69051,0), 5 CTAs running
GPGPU-Sim uArch: core: 10, cta: 5 initialized @(69052,0)
GPGPU-Sim PTX: 23700000 instructions simulated : ctaid=(0,138,0) tid=(8,0,0)
GPGPU-Sim PTX: 23800000 instructions simulated : ctaid=(0,108,0) tid=(201,0,0)
GPGPU-Sim uArch: Shader 14 finished CTA #5 (69685,0), 5 CTAs running
GPGPU-Sim uArch: core: 14, cta: 5 initialized @(69686,0)
GPGPU-Sim uArch: Shader 7 finished CTA #0 (69742,0), 5 CTAs running
GPGPU-Sim uArch: core:  7, cta: 0 initialized @(69743,0)
GPGPU-Sim PTX: 23900000 instructions simulated : ctaid=(0,139,0) tid=(189,0,0)
GPGPU-Sim uArch: cycles simulated: 70000  inst.: 22544319 (ipc=322.1) sim_rate=313115 (inst/sec) elapsed = 0:0:01:12 / Fri Jan 16 06:22:10 2015
GPGPU-Sim PTX: 24000000 instructions simulated : ctaid=(0,126,0) tid=(112,0,0)
GPGPU-Sim uArch: Shader 3 finished CTA #2 (70158,0), 5 CTAs running
GPGPU-Sim uArch: core:  3, cta: 2 initialized @(70159,0)
GPGPU-Sim uArch: Shader 11 finished CTA #5 (70266,0), 5 CTAs running
GPGPU-Sim uArch: core: 11, cta: 5 initialized @(70267,0)
GPGPU-Sim PTX: 24100000 instructions simulated : ctaid=(0,145,0) tid=(130,0,0)
GPGPU-Sim uArch: cycles simulated: 70500  inst.: 22706795 (ipc=322.1) sim_rate=311051 (inst/sec) elapsed = 0:0:01:13 / Fri Jan 16 06:22:11 2015
GPGPU-Sim PTX: 24200000 instructions simulated : ctaid=(0,158,0) tid=(20,0,0)
GPGPU-Sim PTX: 24300000 instructions simulated : ctaid=(0,141,0) tid=(85,0,0)
GPGPU-Sim PTX: 24400000 instructions simulated : ctaid=(0,122,0) tid=(112,0,0)
GPGPU-Sim uArch: Shader 0 finished CTA #5 (71404,0), 5 CTAs running
GPGPU-Sim uArch: core:  0, cta: 5 initialized @(71405,0)
GPGPU-Sim uArch: cycles simulated: 71500  inst.: 23041627 (ipc=322.3) sim_rate=311373 (inst/sec) elapsed = 0:0:01:14 / Fri Jan 16 06:22:12 2015
GPGPU-Sim PTX: 24500000 instructions simulated : ctaid=(0,129,0) tid=(43,0,0)
GPGPU-Sim uArch: Shader 1 finished CTA #0 (71565,0), 5 CTAs running
GPGPU-Sim uArch: core:  1, cta: 0 initialized @(71566,0)
GPGPU-Sim PTX: 24600000 instructions simulated : ctaid=(0,168,0) tid=(70,0,0)
GPGPU-Sim PTX: 24700000 instructions simulated : ctaid=(0,135,0) tid=(168,0,0)
GPGPU-Sim uArch: Shader 4 finished CTA #3 (72168,0), 5 CTAs running
GPGPU-Sim uArch: core:  4, cta: 3 initialized @(72169,0)
GPGPU-Sim PTX: 24800000 instructions simulated : ctaid=(0,129,0) tid=(246,0,0)
GPGPU-Sim uArch: cycles simulated: 72500  inst.: 23381691 (ipc=322.5) sim_rate=311755 (inst/sec) elapsed = 0:0:01:15 / Fri Jan 16 06:22:13 2015
GPGPU-Sim PTX: 24900000 instructions simulated : ctaid=(0,142,0) tid=(177,0,0)
GPGPU-Sim uArch: Shader 12 finished CTA #5 (72748,0), 5 CTAs running
GPGPU-Sim uArch: core: 12, cta: 5 initialized @(72749,0)
GPGPU-Sim PTX: 25000000 instructions simulated : ctaid=(0,122,0) tid=(239,0,0)
GPGPU-Sim PTX: 25100000 instructions simulated : ctaid=(0,131,0) tid=(208,0,0)
GPGPU-Sim PTX: 25200000 instructions simulated : ctaid=(0,142,0) tid=(153,0,0)
GPGPU-Sim uArch: cycles simulated: 73500  inst.: 23724612 (ipc=322.8) sim_rate=312165 (inst/sec) elapsed = 0:0:01:16 / Fri Jan 16 06:22:14 2015
GPGPU-Sim uArch: Shader 8 finished CTA #2 (73539,0), 5 CTAs running
GPGPU-Sim uArch: core:  8, cta: 2 initialized @(73540,0)
GPGPU-Sim PTX: 25300000 instructions simulated : ctaid=(0,182,0) tid=(199,0,0)
GPGPU-Sim PTX: 25400000 instructions simulated : ctaid=(0,125,0) tid=(255,0,0)
GPGPU-Sim PTX: 25500000 instructions simulated : ctaid=(0,126,0) tid=(248,0,0)
GPGPU-Sim uArch: Shader 9 finished CTA #2 (74419,0), 5 CTAs running
GPGPU-Sim uArch: core:  9, cta: 2 initialized @(74420,0)
GPGPU-Sim uArch: cycles simulated: 74500  inst.: 24066023 (ipc=323.0) sim_rate=312545 (inst/sec) elapsed = 0:0:01:17 / Fri Jan 16 06:22:15 2015
GPGPU-Sim PTX: 25600000 instructions simulated : ctaid=(0,94,0) tid=(226,0,0)
GPGPU-Sim PTX: 25700000 instructions simulated : ctaid=(0,152,0) tid=(130,0,0)
GPGPU-Sim uArch: Shader 10 finished CTA #0 (75008,0), 5 CTAs running
GPGPU-Sim uArch: core: 10, cta: 0 initialized @(75009,0)
GPGPU-Sim PTX: 25800000 instructions simulated : ctaid=(0,140,0) tid=(91,0,0)
GPGPU-Sim PTX: 25900000 instructions simulated : ctaid=(0,165,0) tid=(135,0,0)
GPGPU-Sim uArch: cycles simulated: 75500  inst.: 24395208 (ipc=323.1) sim_rate=312759 (inst/sec) elapsed = 0:0:01:18 / Fri Jan 16 06:22:16 2015
GPGPU-Sim PTX: 26000000 instructions simulated : ctaid=(0,131,0) tid=(156,0,0)
GPGPU-Sim uArch: cycles simulated: 76000  inst.: 24553083 (ipc=323.1) sim_rate=310798 (inst/sec) elapsed = 0:0:01:19 / Fri Jan 16 06:22:17 2015
GPGPU-Sim PTX: 26100000 instructions simulated : ctaid=(0,110,0) tid=(215,0,0)
GPGPU-Sim PTX: 26200000 instructions simulated : ctaid=(0,122,0) tid=(237,0,0)
GPGPU-Sim PTX: 26300000 instructions simulated : ctaid=(0,182,0) tid=(64,0,0)
GPGPU-Sim PTX: 26400000 instructions simulated : ctaid=(0,163,0) tid=(67,0,0)
GPGPU-Sim uArch: cycles simulated: 77000  inst.: 24878271 (ipc=323.1) sim_rate=310978 (inst/sec) elapsed = 0:0:01:20 / Fri Jan 16 06:22:18 2015
GPGPU-Sim uArch: Shader 9 finished CTA #1 (77093,0), 5 CTAs running
GPGPU-Sim uArch: core:  9, cta: 1 initialized @(77094,0)
GPGPU-Sim PTX: 26500000 instructions simulated : ctaid=(0,139,0) tid=(36,0,0)
GPGPU-Sim uArch: Shader 0 finished CTA #0 (77422,0), 5 CTAs running
GPGPU-Sim uArch: core:  0, cta: 0 initialized @(77423,0)
GPGPU-Sim PTX: 26600000 instructions simulated : ctaid=(0,138,0) tid=(108,0,0)
GPGPU-Sim uArch: Shader 2 finished CTA #1 (77505,0), 5 CTAs running
GPGPU-Sim uArch: core:  2, cta: 1 initialized @(77506,0)
GPGPU-Sim PTX: 26700000 instructions simulated : ctaid=(0,145,0) tid=(171,0,0)
GPGPU-Sim uArch: Shader 7 finished CTA #1 (77904,0), 5 CTAs running
GPGPU-Sim uArch: core:  7, cta: 1 initialized @(77905,0)
GPGPU-Sim uArch: cycles simulated: 78000  inst.: 25215172 (ipc=323.3) sim_rate=311298 (inst/sec) elapsed = 0:0:01:21 / Fri Jan 16 06:22:19 2015
GPGPU-Sim PTX: 26800000 instructions simulated : ctaid=(0,118,0) tid=(113,0,0)
GPGPU-Sim PTX: 26900000 instructions simulated : ctaid=(0,140,0) tid=(188,0,0)
GPGPU-Sim PTX: 27000000 instructions simulated : ctaid=(0,140,0) tid=(145,0,0)
GPGPU-Sim PTX: 27100000 instructions simulated : ctaid=(0,166,0) tid=(22,0,0)
GPGPU-Sim uArch: cycles simulated: 79000  inst.: 25539171 (ipc=323.3) sim_rate=311453 (inst/sec) elapsed = 0:0:01:22 / Fri Jan 16 06:22:20 2015
GPGPU-Sim PTX: 27200000 instructions simulated : ctaid=(0,130,0) tid=(182,0,0)
GPGPU-Sim PTX: 27300000 instructions simulated : ctaid=(0,138,0) tid=(164,0,0)
GPGPU-Sim uArch: cycles simulated: 79500  inst.: 25700316 (ipc=323.3) sim_rate=309642 (inst/sec) elapsed = 0:0:01:23 / Fri Jan 16 06:22:21 2015
GPGPU-Sim PTX: 27400000 instructions simulated : ctaid=(0,130,0) tid=(246,0,0)
GPGPU-Sim PTX: 27500000 instructions simulated : ctaid=(0,110,0) tid=(56,0,0)
GPGPU-Sim PTX: 27600000 instructions simulated : ctaid=(0,152,0) tid=(59,0,0)
GPGPU-Sim uArch: cycles simulated: 80500  inst.: 26017376 (ipc=323.2) sim_rate=309730 (inst/sec) elapsed = 0:0:01:24 / Fri Jan 16 06:22:22 2015
GPGPU-Sim PTX: 27700000 instructions simulated : ctaid=(0,143,0) tid=(125,0,0)
GPGPU-Sim PTX: 27800000 instructions simulated : ctaid=(0,148,0) tid=(72,0,0)
GPGPU-Sim PTX: 27900000 instructions simulated : ctaid=(0,147,0) tid=(126,0,0)
GPGPU-Sim uArch: cycles simulated: 81500  inst.: 26327368 (ipc=323.0) sim_rate=309733 (inst/sec) elapsed = 0:0:01:25 / Fri Jan 16 06:22:23 2015
GPGPU-Sim PTX: 28000000 instructions simulated : ctaid=(0,153,0) tid=(33,0,0)
GPGPU-Sim PTX: 28100000 instructions simulated : ctaid=(0,139,0) tid=(127,0,0)
GPGPU-Sim uArch: Shader 13 finished CTA #2 (82097,0), 5 CTAs running
GPGPU-Sim uArch: core: 13, cta: 2 initialized @(82098,0)
GPGPU-Sim PTX: 28200000 instructions simulated : ctaid=(0,170,0) tid=(23,0,0)
GPGPU-Sim uArch: Shader 12 finished CTA #1 (82216,0), 5 CTAs running
GPGPU-Sim uArch: core: 12, cta: 1 initialized @(82217,0)
GPGPU-Sim PTX: 28300000 instructions simulated : ctaid=(0,149,0) tid=(209,0,0)
GPGPU-Sim uArch: cycles simulated: 82500  inst.: 26646145 (ipc=323.0) sim_rate=309838 (inst/sec) elapsed = 0:0:01:26 / Fri Jan 16 06:22:24 2015
GPGPU-Sim PTX: 28400000 instructions simulated : ctaid=(0,155,0) tid=(154,0,0)
GPGPU-Sim PTX: 28500000 instructions simulated : ctaid=(0,158,0) tid=(153,0,0)
GPGPU-Sim PTX: 28600000 instructions simulated : ctaid=(0,160,0) tid=(81,0,0)
GPGPU-Sim uArch: cycles simulated: 83500  inst.: 26968139 (ipc=323.0) sim_rate=309978 (inst/sec) elapsed = 0:0:01:27 / Fri Jan 16 06:22:25 2015
GPGPU-Sim PTX: 28700000 instructions simulated : ctaid=(0,179,0) tid=(70,0,0)
GPGPU-Sim PTX: 28800000 instructions simulated : ctaid=(0,158,0) tid=(153,0,0)
GPGPU-Sim PTX: 28900000 instructions simulated : ctaid=(0,162,0) tid=(66,0,0)
GPGPU-Sim PTX: 29000000 instructions simulated : ctaid=(0,154,0) tid=(67,0,0)
GPGPU-Sim uArch: cycles simulated: 84500  inst.: 27305547 (ipc=323.1) sim_rate=310290 (inst/sec) elapsed = 0:0:01:28 / Fri Jan 16 06:22:26 2015
GPGPU-Sim PTX: 29100000 instructions simulated : ctaid=(0,155,0) tid=(50,0,0)
GPGPU-Sim uArch: Shader 1 finished CTA #1 (84783,0), 5 CTAs running
GPGPU-Sim uArch: core:  1, cta: 1 initialized @(84784,0)
GPGPU-Sim PTX: 29200000 instructions simulated : ctaid=(0,143,0) tid=(46,0,0)
GPGPU-Sim PTX: 29300000 instructions simulated : ctaid=(0,148,0) tid=(59,0,0)
GPGPU-Sim uArch: cycles simulated: 85500  inst.: 27654295 (ipc=323.4) sim_rate=310722 (inst/sec) elapsed = 0:0:01:29 / Fri Jan 16 06:22:27 2015
GPGPU-Sim PTX: 29400000 instructions simulated : ctaid=(0,109,0) tid=(225,0,0)
GPGPU-Sim uArch: Shader 11 finished CTA #2 (85777,0), 5 CTAs running
GPGPU-Sim uArch: core: 11, cta: 2 initialized @(85778,0)
GPGPU-Sim PTX: 29500000 instructions simulated : ctaid=(0,161,0) tid=(81,0,0)
GPGPU-Sim PTX: 29600000 instructions simulated : ctaid=(0,149,0) tid=(40,0,0)
GPGPU-Sim PTX: 29700000 instructions simulated : ctaid=(0,144,0) tid=(124,0,0)
GPGPU-Sim uArch: Shader 8 finished CTA #0 (86380,0), 5 CTAs running
GPGPU-Sim uArch: core:  8, cta: 0 initialized @(86381,0)
GPGPU-Sim uArch: cycles simulated: 86500  inst.: 27992281 (ipc=323.6) sim_rate=311025 (inst/sec) elapsed = 0:0:01:30 / Fri Jan 16 06:22:28 2015
GPGPU-Sim PTX: 29800000 instructions simulated : ctaid=(0,172,0) tid=(206,0,0)
GPGPU-Sim PTX: 29900000 instructions simulated : ctaid=(0,149,0) tid=(67,0,0)
GPGPU-Sim uArch: cycles simulated: 87000  inst.: 28166819 (ipc=323.8) sim_rate=309525 (inst/sec) elapsed = 0:0:01:31 / Fri Jan 16 06:22:29 2015
GPGPU-Sim PTX: 30000000 instructions simulated : ctaid=(0,143,0) tid=(172,0,0)
GPGPU-Sim PTX: 30100000 instructions simulated : ctaid=(0,170,0) tid=(70,0,0)
GPGPU-Sim uArch: Shader 11 finished CTA #1 (87691,0), 5 CTAs running
GPGPU-Sim uArch: core: 11, cta: 1 initialized @(87692,0)
GPGPU-Sim PTX: 30200000 instructions simulated : ctaid=(0,186,0) tid=(85,0,0)
GPGPU-Sim uArch: cycles simulated: 88000  inst.: 28509577 (ipc=324.0) sim_rate=309886 (inst/sec) elapsed = 0:0:01:32 / Fri Jan 16 06:22:30 2015
GPGPU-Sim PTX: 30300000 instructions simulated : ctaid=(0,200,0) tid=(5,0,0)
GPGPU-Sim uArch: Shader 14 finished CTA #0 (88002,0), 5 CTAs running
GPGPU-Sim uArch: core: 14, cta: 0 initialized @(88003,0)
GPGPU-Sim uArch: Shader 3 finished CTA #3 (88187,0), 5 CTAs running
GPGPU-Sim uArch: core:  3, cta: 3 initialized @(88188,0)
GPGPU-Sim PTX: 30400000 instructions simulated : ctaid=(0,151,0) tid=(120,0,0)
GPGPU-Sim PTX: 30500000 instructions simulated : ctaid=(0,186,0) tid=(151,0,0)
GPGPU-Sim PTX: 30600000 instructions simulated : ctaid=(0,169,0) tid=(130,0,0)
GPGPU-Sim uArch: cycles simulated: 89000  inst.: 28845903 (ipc=324.1) sim_rate=310171 (inst/sec) elapsed = 0:0:01:33 / Fri Jan 16 06:22:31 2015
GPGPU-Sim uArch: Shader 10 finished CTA #1 (89096,0), 5 CTAs running
GPGPU-Sim uArch: core: 10, cta: 1 initialized @(89097,0)
GPGPU-Sim PTX: 30700000 instructions simulated : ctaid=(0,175,0) tid=(64,0,0)
GPGPU-Sim PTX: 30800000 instructions simulated : ctaid=(0,141,0) tid=(122,0,0)
GPGPU-Sim PTX: 30900000 instructions simulated : ctaid=(0,144,0) tid=(35,0,0)
GPGPU-Sim uArch: Shader 5 finished CTA #2 (89917,0), 5 CTAs running
GPGPU-Sim uArch: core:  5, cta: 2 initialized @(89918,0)
GPGPU-Sim uArch: cycles simulated: 90000  inst.: 29167155 (ipc=324.1) sim_rate=310288 (inst/sec) elapsed = 0:0:01:34 / Fri Jan 16 06:22:32 2015
GPGPU-Sim PTX: 31000000 instructions simulated : ctaid=(0,152,0) tid=(103,0,0)
GPGPU-Sim PTX: 31100000 instructions simulated : ctaid=(0,175,0) tid=(194,0,0)
GPGPU-Sim PTX: 31200000 instructions simulated : ctaid=(0,203,0) tid=(91,0,0)
GPGPU-Sim PTX: 31300000 instructions simulated : ctaid=(0,136,0) tid=(167,0,0)
GPGPU-Sim uArch: cycles simulated: 91000  inst.: 29492093 (ipc=324.1) sim_rate=310443 (inst/sec) elapsed = 0:0:01:35 / Fri Jan 16 06:22:33 2015
GPGPU-Sim PTX: 31400000 instructions simulated : ctaid=(0,164,0) tid=(135,0,0)
GPGPU-Sim PTX: 31500000 instructions simulated : ctaid=(0,203,0) tid=(159,0,0)
GPGPU-Sim uArch: cycles simulated: 91500  inst.: 29661028 (ipc=324.2) sim_rate=308969 (inst/sec) elapsed = 0:0:01:36 / Fri Jan 16 06:22:34 2015
GPGPU-Sim PTX: 31600000 instructions simulated : ctaid=(0,191,0) tid=(31,0,0)
GPGPU-Sim uArch: Shader 3 finished CTA #0 (91824,0), 5 CTAs running
GPGPU-Sim uArch: core:  3, cta: 0 initialized @(91825,0)
GPGPU-Sim PTX: 31700000 instructions simulated : ctaid=(0,171,0) tid=(215,0,0)
GPGPU-Sim uArch: Shader 6 finished CTA #1 (91994,0), 5 CTAs running
GPGPU-Sim uArch: core:  6, cta: 1 initialized @(91995,0)
GPGPU-Sim uArch: Shader 12 finished CTA #0 (92122,0), 5 CTAs running
GPGPU-Sim uArch: core: 12, cta: 0 initialized @(92123,0)
GPGPU-Sim PTX: 31800000 instructions simulated : ctaid=(0,179,0) tid=(80,0,0)
GPGPU-Sim uArch: Shader 1 finished CTA #3 (92348,0), 5 CTAs running
GPGPU-Sim uArch: core:  1, cta: 3 initialized @(92349,0)
GPGPU-Sim uArch: cycles simulated: 92500  inst.: 30002014 (ipc=324.3) sim_rate=309299 (inst/sec) elapsed = 0:0:01:37 / Fri Jan 16 06:22:35 2015
GPGPU-Sim PTX: 31900000 instructions simulated : ctaid=(0,181,0) tid=(14,0,0)
GPGPU-Sim uArch: Shader 13 finished CTA #0 (92584,0), 5 CTAs running
GPGPU-Sim uArch: core: 13, cta: 0 initialized @(92585,0)
GPGPU-Sim PTX: 32000000 instructions simulated : ctaid=(0,170,0) tid=(78,0,0)
GPGPU-Sim PTX: 32100000 instructions simulated : ctaid=(0,175,0) tid=(199,0,0)
GPGPU-Sim PTX: 32200000 instructions simulated : ctaid=(0,194,0) tid=(132,0,0)
GPGPU-Sim uArch: cycles simulated: 93500  inst.: 30343472 (ipc=324.5) sim_rate=309627 (inst/sec) elapsed = 0:0:01:38 / Fri Jan 16 06:22:36 2015
GPGPU-Sim PTX: 32300000 instructions simulated : ctaid=(0,164,0) tid=(151,0,0)
GPGPU-Sim PTX: 32400000 instructions simulated : ctaid=(0,167,0) tid=(76,0,0)
GPGPU-Sim PTX: 32500000 instructions simulated : ctaid=(0,203,0) tid=(137,0,0)
[...]
gpgpu_stall_shd_mem[t_mem][mshr_rc] = 0
gpgpu_stall_shd_mem[t_mem][icnt_rc] = 0
gpgpu_stall_shd_mem[t_mem][data_port_stall] = 0
gpgpu_stall_shd_mem[s_mem][bk_conf] = 0
gpgpu_stall_shd_mem[gl_mem][bk_conf] = 0
gpgpu_stall_shd_mem[gl_mem][coal_stall] = 0
gpgpu_stall_shd_mem[gl_mem][data_port_stall] = 0
gpgpu_stall_shd_mem[g_mem_ld][mshr_rc] = 0
gpgpu_stall_shd_mem[g_mem_ld][icnt_rc] = 0
gpgpu_stall_shd_mem[g_mem_ld][wb_icnt_rc] = 0
gpgpu_stall_shd_mem[g_mem_ld][wb_rsrv_fail] = 0
gpgpu_stall_shd_mem[g_mem_st][mshr_rc] = 0
gpgpu_stall_shd_mem[g_mem_st][icnt_rc] = 0
gpgpu_stall_shd_mem[g_mem_st][wb_icnt_rc] = 0
gpgpu_stall_shd_mem[g_mem_st][wb_rsrv_fail] = 0
gpgpu_stall_shd_mem[l_mem_ld][mshr_rc] = 0
gpgpu_stall_shd_mem[l_mem_ld][icnt_rc] = 0
gpgpu_stall_shd_mem[l_mem_ld][wb_icnt_rc] = 0
gpgpu_stall_shd_mem[l_mem_ld][wb_rsrv_fail] = 0
gpgpu_stall_shd_mem[l_mem_st][mshr_rc] = 0
gpgpu_stall_shd_mem[l_mem_st][icnt_rc] = 0
gpgpu_stall_shd_mem[l_mem_ld][wb_icnt_rc] = 0
gpgpu_stall_shd_mem[l_mem_ld][wb_rsrv_fail] = 0
gpu_reg_bank_conflict_stalls = 0
Warp Occupancy Distribution:
Stall:569984	W0_Idle:516459	W0_Scoreboard:230591	W1:931606	W2:462826	W3:291726	W4:198174	W5:155342	W6:126384	W7:100656	W8:90064	W9:75408	W10:71312	W11:64768	W12:59856	W13:47008	W14:39632	W15:38016	W16:34624	W17:32736	W18:29936	W19:34912	W20:26224	W21:26800	W22:27920	W23:27312	W24:27328	W25:27616	W26:24672	W27:22160	W28:23824	W29:17904	W30:16752	W31:18592	W32:1101264
traffic_breakdown_coretomem[CONST_ACC_R] = 120 {8:15,}
traffic_breakdown_coretomem[GLOBAL_ACC_W] = 81920 {40:2048,}
traffic_breakdown_coretomem[INST_ACC_R] = 480 {8:60,}
traffic_breakdown_memtocore[CONST_ACC_R] = 1080 {72:15,}
traffic_breakdown_memtocore[GLOBAL_ACC_W] = 16384 {8:2048,}
traffic_breakdown_memtocore[INST_ACC_R] = 8160 {136:60,}
maxmrqlatency = 20 
maxdqlatency = 0 
maxmflatency = 278 
averagemflatency = 167 
max_icnt2mem_latency = 36 
max_icnt2sh_latency = 195866 
mrq_lat_table:1005 	1 	24 	4 	3 	0 	0 	0 	0 	0 	0 	0 	0 	0 	0 	0 	0 	0 	0 	0 	0 	0 	0 	0 	0 	0 	0 	0 	0 	0 	0 	0 	
dq_lat_table:0 	0 	0 	0 	0 	0 	0 	0 	0 	0 	0 	0 	0 	0 	0 	0 	0 	0 	0 	0 	0 	0 	0 	0 	0 	0 	0 	0 	0 	0 	0 	0 	
mf_lat_table:0 	0 	0 	0 	0 	0 	0 	2051 	12 	0 	0 	0 	0 	0 	0 	0 	0 	0 	0 	0 	0 	0 	0 	0 	0 	0 	0 	0 	0 	0 	0 	0 	
icnt2mem_lat_table:0 	0 	0 	2112 	8 	3 	0 	0 	0 	0 	0 	0 	0 	0 	0 	0 	0 	0 	0 	0 	0 	0 	0 	0 	
icnt2sh_lat_table:0 	0 	0 	2 	13 	0 	0 	0 	0 	0 	0 	22 	117 	108 	265 	335 	725 	476 	0 	0 	0 	0 	0 	0 	
mf_lat_pw_table:0 	0 	0 	0 	0 	0 	0 	375 	1 	0 	0 	0 	0 	0 	0 	0 	0 	0 	0 	0 	0 	0 	0 	0 	0 	0 	0 	0 	0 	0 	0 	0 	
maximum concurrent accesses to same row:
dram[0]:         1         0         0         0         0         0         0         0         0         0         0         0         0         0         0         0 
dram[1]:         0         0         0         0         0         0         0         0         0         0         0         0         0         0         0         0 
dram[2]:         0         0         0         0         0         0         0         0         0         0         0         0         0         0         0         0 
dram[3]:         0         0         0         0         0         0         0         0         0         0         0         0         0         0         0         0 
dram[4]:         0         0         0         0         0         0         0         0         0         0         0         0         0         0         0         0 
dram[5]:         0         0         0         0         0         0         0         0         0         0         0         0         0         0         0         0 
maximum service time to same row:
dram[0]:       369         0         0         0      2897      2988     21431     23628         0         0         0         0         0         0         0         0 
dram[1]:      1509         0         0         0      2938      2976     20379     22866         0         0         0         0         0         0         0         0 
dram[2]:         0         0         0         0      2890      2909     23157     23649         0         0         0         0         0         0         0         0 
dram[3]:         0         0         0         0      2957      2903     21112     19902         0         0         0         0         0         0         0         0 
dram[4]:         0         0         0         0      2926      2907     21753     17329         0         0         0         0         0         0         0         0 
dram[5]:         0         0         0         0      2932      2879     24597     31482         0         0         0         0         0         0         0         0 
average row accesses per activate:
dram[0]:  1.000000      -nan      -nan      -nan 21.000000 20.000000 64.000000 64.000000      -nan      -nan      -nan      -nan      -nan      -nan      -nan      -nan 
dram[1]:  2.000000      -nan      -nan      -nan 21.000000 20.000000 64.000000 64.000000      -nan      -nan      -nan      -nan      -nan      -nan      -nan      -nan 
dram[2]:      -nan      -nan      -nan      -nan 21.000000 25.000000 64.000000 64.000000      -nan      -nan      -nan      -nan      -nan      -nan      -nan      -nan 
dram[3]:      -nan      -nan      -nan      -nan 21.000000 25.000000 64.000000 64.000000      -nan      -nan      -nan      -nan      -nan      -nan      -nan      -nan 
dram[4]:      -nan      -nan      -nan      -nan 20.000000 24.000000 64.000000 64.000000      -nan      -nan      -nan      -nan      -nan      -nan      -nan      -nan 
dram[5]:      -nan      -nan      -nan      -nan 20.000000 25.000000 65.000000 64.000000      -nan      -nan      -nan      -nan      -nan      -nan      -nan      -nan 
average row locality = 1037/28 = 37.035713
number of total memory accesses made:
dram[0]:         0         0         0         0         0         0         0         0         0         0         0         0         0         0         0         0 
dram[1]:         0         0         0         0         0         0         0         0         0         0         0         0         0         0         0         0 
dram[2]:         0         0         0         0         0         0         0         0         0         0         0         0         0         0         0         0 
dram[3]:         0         0         0         0         0         0         0         0         0         0         0         0         0         0         0         0 
dram[4]:         0         0         0         0         0         0         0         0         0         0         0         0         0         0         0         0 
dram[5]:         0         0         0         0         0         0         0         0         0         0         0         0         0         0         0         0 
total accesses: 0
min_bank_accesses = 0!
min_chip_accesses = 0!
number of total read accesses:
dram[0]:         3         0         0         0        10        10        32        32         0         0         0         0         0         0         0         0 
dram[1]:         2         0         0         0        10        10        32        32         0         0         0         0         0         0         0         0 
dram[2]:         0         0         0         0        10        12        32        32         0         0         0         0         0         0         0         0 
dram[3]:         0         0         0         0        10        12        32        32         0         0         0         0         0         0         0         0 
dram[4]:         0         0         0         0        10        12        32        32         0         0         0         0         0         0         0         0 
dram[5]:         0         0         0         0        10        12        32        32         0         0         0         0         0         0         0         0 
total reads: 517
min_bank_accesses = 0!
chip skew: 87/86 = 1.01
number of total write accesses:
dram[0]:         0         0         0         0        11        10        32        32         0         0         0         0         0         0         0         0 
dram[1]:         0         0         0         0        11        10        32        32         0         0         0         0         0         0         0         0 
dram[2]:         0         0         0         0        11        13        32        32         0         0         0         0         0         0         0         0 
dram[3]:         0         0         0         0        11        13        32        32         0         0         0         0         0         0         0         0 
dram[4]:         0         0         0         0        10        12        32        32         0         0         0         0         0         0         0         0 
dram[5]:         0         0         0         0        10        13        33        32         0         0         0         0         0         0         0         0 
total reads: 520
min_bank_accesses = 0!
chip skew: 88/85 = 1.04
average mf latency per bank:
dram[0]:       1300    none      none      none         322       334       333       333    none      none      none      none      none      none      none      none  
dram[1]:          0    none      none      none         322       333       333       333    none      none      none      none      none      none      none      none  
dram[2]:     none      none      none      none         322       324       333       333    none      none      none      none      none      none      none      none  
dram[3]:     none      none      none      none         322       324       333       333    none      none      none      none      none      none      none      none  
dram[4]:     none      none      none      none         334       333       333       333    none      none      none      none      none      none      none      none  
dram[5]:     none      none      none      none         333       324       329       333    none      none      none      none      none      none      none      none  
maximum mf latency per bank:
dram[0]:        278         0         0         0       252       264       252       252         0         0         0         0         0         0         0         0
dram[1]:          0         0         0         0       252       252       266       251         0         0         0         0         0         0         0         0
dram[2]:          0         0         0         0       252       253       251       252         0         0         0         0         0         0         0         0
dram[3]:          0         0         0         0       251       252       252       252         0         0         0         0         0         0         0         0
dram[4]:          0         0         0         0       254       251       252       251         0         0         0         0         0         0         0         0
dram[5]:          0         0         0         0       251       252       252       252         0         0         0         0         0         0         0         0
Memory Partition 0: 
Cache L2_bank_000:
MSHR contents

Cache L2_bank_001:
MSHR contents

In Dram Latency Queue (total = 0): 
DRAM[0]: 16 bks, busW=4 BL=8 CL=12, tRRD=2 tCCD=6, tRCD=12 tRAS=28 tRP=12 tRC=40
n_cmd=258544 n_nop=258276 n_act=7 n_pre=2 n_req=172 n_rd=174 n_write=85 bw_util=0.002004
n_activity=2395 dram_eff=0.2163
bk0: 6a 258472i bk1: 0a 258543i bk2: 0a 258546i bk3: 0a 258546i bk4: 20a 258389i bk5: 20a 258379i bk6: 64a 258066i bk7: 64a 258063i bk8: 0a 258542i bk9: 0a 258542i bk10: 0a 258542i bk11: 0a 258543i bk12: 0a 258543i bk13: 0a 258544i bk14: 0a 258544i bk15: 0a 258544i 
dram_util_bins: 0 0 0 0 0 0 0 0 0 0
dram_eff_bins: 0 0 0 0 0 0 0 0 0 0
mrqq: max=2 avg=0.000228201
Memory Partition 1: 
Cache L2_bank_002:
MSHR contents

Cache L2_bank_003:
MSHR contents

In Dram Latency Queue (total = 0): 
DRAM[1]: 16 bks, busW=4 BL=8 CL=12, tRRD=2 tCCD=6, tRCD=12 tRAS=28 tRP=12 tRC=40
n_cmd=258544 n_nop=258282 n_act=5 n_pre=0 n_req=171 n_rd=172 n_write=85 bw_util=0.001988
n_activity=2306 dram_eff=0.2229
bk0: 4a 258524i bk1: 0a 258545i bk2: 0a 258545i bk3: 0a 258546i bk4: 20a 258390i bk5: 20a 258389i bk6: 64a 258043i bk7: 64a 258069i bk8: 0a 258542i bk9: 0a 258543i bk10: 0a 258543i bk11: 0a 258543i bk12: 0a 258543i bk13: 0a 258544i bk14: 0a 258544i bk15: 0a 258544i 
dram_util_bins: 0 0 0 0 0 0 0 0 0 0
dram_eff_bins: 0 0 0 0 0 0 0 0 0 0
mrqq: max=2 avg=0.00037131
Memory Partition 2: 
Cache L2_bank_004:
MSHR contents

Cache L2_bank_005:
MSHR contents

In Dram Latency Queue (total = 0): 
DRAM[2]: 16 bks, busW=4 BL=8 CL=12, tRRD=2 tCCD=6, tRCD=12 tRAS=28 tRP=12 tRC=40
n_cmd=258544 n_nop=258280 n_act=4 n_pre=0 n_req=174 n_rd=172 n_write=88 bw_util=0.002011
n_activity=2299 dram_eff=0.2262
bk0: 0a 258545i bk1: 0a 258546i bk2: 0a 258546i bk3: 0a 258546i bk4: 20a 258390i bk5: 24a 258361i bk6: 64a 258065i bk7: 64a 258063i bk8: 0a 258541i bk9: 0a 258542i bk10: 0a 258542i bk11: 0a 258543i bk12: 0a 258543i bk13: 0a 258543i bk14: 0a 258544i bk15: 0a 258544i 
dram_util_bins: 0 0 0 0 0 0 0 0 0 0
dram_eff_bins: 0 0 0 0 0 0 0 0 0 0
mrqq: max=1 avg=0.000119902
Memory Partition 3: 
Cache L2_bank_006:
MSHR contents

Cache L2_bank_007:
MSHR contents

In Dram Latency Queue (total = 0): 
DRAM[3]: 16 bks, busW=4 BL=8 CL=12, tRRD=2 tCCD=6, tRCD=12 tRAS=28 tRP=12 tRC=40
n_cmd=258544 n_nop=258280 n_act=4 n_pre=0 n_req=174 n_rd=172 n_write=88 bw_util=0.002011
n_activity=2314 dram_eff=0.2247
bk0: 0a 258544i bk1: 0a 258546i bk2: 0a 258547i bk3: 0a 258547i bk4: 20a 258392i bk5: 24a 258360i bk6: 64a 258063i bk7: 64a 258059i bk8: 0a 258541i bk9: 0a 258541i bk10: 0a 258542i bk11: 0a 258543i bk12: 0a 258543i bk13: 0a 258543i bk14: 0a 258543i bk15: 0a 258544i 
dram_util_bins: 0 0 0 0 0 0 0 0 0 0
dram_eff_bins: 0 0 0 0 0 0 0 0 0 0
mrqq: max=1 avg=0.000104431
Memory Partition 4: 
Cache L2_bank_008:
MSHR contents

Cache L2_bank_009:
MSHR contents

In Dram Latency Queue (total = 0): 
DRAM[4]: 16 bks, busW=4 BL=8 CL=12, tRRD=2 tCCD=6, tRCD=12 tRAS=28 tRP=12 tRC=40
n_cmd=258544 n_nop=258282 n_act=4 n_pre=0 n_req=172 n_rd=172 n_write=86 bw_util=0.001996
n_activity=2276 dram_eff=0.2267
bk0: 0a 258545i bk1: 0a 258546i bk2: 0a 258547i bk3: 0a 258547i bk4: 20a 258377i bk5: 24a 258361i bk6: 64a 258066i bk7: 64a 258062i bk8: 0a 258541i bk9: 0a 258541i bk10: 0a 258541i bk11: 0a 258543i bk12: 0a 258543i bk13: 0a 258543i bk14: 0a 258544i bk15: 0a 258544i 
dram_util_bins: 0 0 0 0 0 0 0 0 0 0
dram_eff_bins: 0 0 0 0 0 0 0 0 0 0
mrqq: max=1 avg=0.000146977
Memory Partition 5: 
Cache L2_bank_010:
MSHR contents

Cache L2_bank_011:
MSHR contents

In Dram Latency Queue (total = 0): 
DRAM[5]: 16 bks, busW=4 BL=8 CL=12, tRRD=2 tCCD=6, tRCD=12 tRAS=28 tRP=12 tRC=40
n_cmd=258544 n_nop=258280 n_act=4 n_pre=0 n_req=174 n_rd=172 n_write=88 bw_util=0.002011
n_activity=2314 dram_eff=0.2247
bk0: 0a 258545i bk1: 0a 258546i bk2: 0a 258547i bk3: 0a 258548i bk4: 20a 258393i bk5: 24a 258360i bk6: 64a 258061i bk7: 64a 258063i bk8: 0a 258541i bk9: 0a 258541i bk10: 0a 258541i bk11: 0a 258542i bk12: 0a 258542i bk13: 0a 258543i bk14: 0a 258544i bk15: 0a 258544i 
dram_util_bins: 0 0 0 0 0 0 0 0 0 0
dram_eff_bins: 0 0 0 0 0 0 0 0 0 0
mrqq: max=1 avg=0.000104431

========= L2 cache stats =========
L2_cache_bank[0]: Access = 213, Miss = 45, Miss_rate = 0.211, Pending_hits = 10, Reservation_fails = 333
L2_cache_bank[1]: Access = 168, Miss = 42, Miss_rate = 0.250, Pending_hits = 0, Reservation_fails = 0
L2_cache_bank[2]: Access = 198, Miss = 44, Miss_rate = 0.222, Pending_hits = 7, Reservation_fails = 111
L2_cache_bank[3]: Access = 168, Miss = 42, Miss_rate = 0.250, Pending_hits = 0, Reservation_fails = 0
L2_cache_bank[4]: Access = 168, Miss = 42, Miss_rate = 0.250, Pending_hits = 1, Reservation_fails = 0
L2_cache_bank[5]: Access = 176, Miss = 44, Miss_rate = 0.250, Pending_hits = 1, Reservation_fails = 0
L2_cache_bank[6]: Access = 168, Miss = 42, Miss_rate = 0.250, Pending_hits = 1, Reservation_fails = 0
L2_cache_bank[7]: Access = 176, Miss = 44, Miss_rate = 0.250, Pending_hits = 1, Reservation_fails = 0
L2_cache_bank[8]: Access = 168, Miss = 42, Miss_rate = 0.250, Pending_hits = 0, Reservation_fails = 0
L2_cache_bank[9]: Access = 176, Miss = 44, Miss_rate = 0.250, Pending_hits = 0, Reservation_fails = 0
L2_cache_bank[10]: Access = 168, Miss = 42, Miss_rate = 0.250, Pending_hits = 1, Reservation_fails = 0
L2_cache_bank[11]: Access = 176, Miss = 44, Miss_rate = 0.250, Pending_hits = 1, Reservation_fails = 0
L2_total_cache_accesses = 2123
L2_total_cache_misses = 517
L2_total_cache_miss_rate = 0.2435
L2_total_cache_pending_hits = 23
L2_total_cache_reservation_fails = 444
L2_total_cache_breakdown:
	L2_cache_stats_breakdown[CONST_ACC_R][HIT] = 11
	L2_cache_stats_breakdown[CONST_ACC_R][HIT_RESERVED] = 3
	L2_cache_stats_breakdown[CONST_ACC_R][MISS] = 1
	L2_cache_stats_breakdown[CONST_ACC_R][RESERVATION_FAIL] = 109
	L2_cache_stats_breakdown[GLOBAL_ACC_W][HIT] = 1528
	L2_cache_stats_breakdown[GLOBAL_ACC_W][HIT_RESERVED] = 8
	L2_cache_stats_breakdown[GLOBAL_ACC_W][MISS] = 512
	L2_cache_stats_breakdown[INST_ACC_R][HIT] = 44
	L2_cache_stats_breakdown[INST_ACC_R][HIT_RESERVED] = 12
	L2_cache_stats_breakdown[INST_ACC_R][MISS] = 4
	L2_cache_stats_breakdown[INST_ACC_R][RESERVATION_FAIL] = 335
L2_cache_data_port_util = 0.001
L2_cache_fill_port_util = 0.001

icnt_total_pkts_mem_to_simt=2393
icnt_total_pkts_simt_to_mem=4171
LD_mem_lat_dist  0 0 0 0 0 0 0 0 0 0 0 0 0 0 0 0 0 0 0 0 0 0 0 0 0 0 0
ST_mem_lat_dist  0 0 0 0 0 0 0 0 0 0 0 0 0 0 0 0 0 0 0 0 0 0 0 0 0 0 0
----------------------------Interconnect-DETAILS--------------------------------
Class 0:
Packet latency average = 6.73575
	minimum = 6
	maximum = 34
Network latency average = 6.66274
	minimum = 6
	maximum = 34
Slowest packet = 14
Flit latency average = 6.20612
	minimum = 6
	maximum = 34
Slowest flit = 14
Fragmentation average = 0
	minimum = 0
	maximum = 0
Injected packet rate average = 0.000802888
	minimum = 0.000679032 (at node 0)
	maximum = 0.00108747 (at node 15)
Accepted packet rate average = 0.000802888
	minimum = 0.000679032 (at node 0)
	maximum = 0.00108747 (at node 15)
Injected flit rate average = 0.00124121
	minimum = 0.000857725 (at node 16)
	maximum = 0.0018533 (at node 15)
Accepted flit rate average= 0.00124121
	minimum = 0.000770931 (at node 0)
	maximum = 0.0019452 (at node 15)
Injected packet length average = 1.54593
Accepted packet length average = 1.54593
Total in-flight flits = 0 (0 measured)
====== Overall Traffic Statistics ======
====== Traffic class 0 ======
Packet latency average = 6.73575 (1 samples)
	minimum = 6 (1 samples)
	maximum = 34 (1 samples)
Network latency average = 6.66274 (1 samples)
	minimum = 6 (1 samples)
	maximum = 34 (1 samples)
Flit latency average = 6.20612 (1 samples)
	minimum = 6 (1 samples)
	maximum = 34 (1 samples)
Fragmentation average = 0 (1 samples)
	minimum = 0 (1 samples)
	maximum = 0 (1 samples)
Injected packet rate average = 0.000802888 (1 samples)
	minimum = 0.000679032 (1 samples)
	maximum = 0.00108747 (1 samples)
Accepted packet rate average = 0.000802888 (1 samples)
	minimum = 0.000679032 (1 samples)
	maximum = 0.00108747 (1 samples)
Injected flit rate average = 0.00124121 (1 samples)
	minimum = 0.000857725 (1 samples)
	maximum = 0.0018533 (1 samples)
Accepted flit rate average = 0.00124121 (1 samples)
	minimum = 0.000770931 (1 samples)
	maximum = 0.0019452 (1 samples)
Injected packet size average = 1.54593 (1 samples)
Accepted packet size average = 1.54593 (1 samples)
Hops average = 1 (1 samples)
----------------------------END-of-Interconnect-DETAILS-------------------------


gpgpu_simulation_time = 0 days, 0 hrs, 2 min, 58 sec (178 sec)
gpgpu_simulation_rate = 294716 (inst/sec)
gpgpu_simulation_rate = 1100 (cycle/sec)
