

        *** GPGPU-Sim Simulator Version 3.2.2  [build 17315] ***


GPGPU-Sim PTX: simulation mode 0 (can change with PTX_SIM_MODE_FUNC environment variable:
               1=functional simulation only, 0=detailed performance simulator)
GPGPU-Sim: Configuration options:

-network_mode                           1 # Interconnection network mode
-inter_config_file   config_fermi_islip.icnt # Interconnection network config file
-gpgpu_ptx_use_cuobjdump                    1 # Use cuobjdump to extract ptx and sass from binaries
-gpgpu_experimental_lib_support                    0 # Try to extract code from cuda libraries [Broken because of unknown cudaGetExportTable]
-gpgpu_ptx_convert_to_ptxplus                    0 # Convert SASS (native ISA) to ptxplus and run ptxplus
-gpgpu_ptx_force_max_capability                   20 # Force maximum compute capability
-gpgpu_ptx_inst_debug_to_file                    0 # Dump executed instructions' debug information to file
-gpgpu_ptx_inst_debug_file       inst_debug.txt # Executed instructions' debug output file
-gpgpu_ptx_inst_debug_thread_uid                    1 # Thread UID for executed instructions' debug output
-gpgpu_simd_model                       1 # 1 = post-dominator
-gpgpu_shader_core_pipeline              1536:32 # shader core pipeline config, i.e., {<nthread>:<warpsize>}
-gpgpu_tex_cache:l1  4:128:24,L:R:m:N,F:128:4,128:2 # per-shader L1 texture cache  (READ-ONLY) config  {<nsets>:<bsize>:<assoc>,<rep>:<wr>:<alloc>:<wr_alloc>,<mshr>:<N>:<merge>,<mq>:<rf>}
-gpgpu_const_cache:l1 64:64:2,L:R:f:N,A:2:32,4 # per-shader L1 constant memory cache  (READ-ONLY) config  {<nsets>:<bsize>:<assoc>,<rep>:<wr>:<alloc>:<wr_alloc>,<mshr>:<N>:<merge>,<mq>} 
-gpgpu_cache:il1     4:128:4,L:R:f:N,A:2:32,4 # shader L1 instruction cache config  {<nsets>:<bsize>:<assoc>,<rep>:<wr>:<alloc>:<wr_alloc>,<mshr>:<N>:<merge>,<mq>} 
-gpgpu_cache:dl1     32:128:4,L:L:m:N,A:32:8,8 # per-shader L1 data cache config  {<nsets>:<bsize>:<assoc>,<rep>:<wr>:<alloc>:<wr_alloc>,<mshr>:<N>:<merge>,<mq> | none}
-gpgpu_cache:dl1PrefL1                 none # per-shader L1 data cache config  {<nsets>:<bsize>:<assoc>,<rep>:<wr>:<alloc>:<wr_alloc>,<mshr>:<N>:<merge>,<mq> | none}
-gpgpu_cache:dl1PreShared                 none # per-shader L1 data cache config  {<nsets>:<bsize>:<assoc>,<rep>:<wr>:<alloc>:<wr_alloc>,<mshr>:<N>:<merge>,<mq> | none}
-gmem_skip_L1D                          0 # global memory access skip L1D cache (implements -Xptxas -dlcm=cg, default=no skip)
-gpgpu_perfect_mem                      0 # enable perfect memory mode (no cache miss)
-n_regfile_gating_group                    4 # group of lanes that should be read/written together)
-gpgpu_clock_gated_reg_file                    0 # enable clock gated reg file for power calculations
-gpgpu_clock_gated_lanes                    0 # enable clock gated lanes for power calculations
-gpgpu_shader_registers                32768 # Number of registers per shader core. Limits number of concurrent CTAs. (default 8192)
-gpgpu_shader_cta                       8 # Maximum number of concurrent CTAs in shader (default 8)
-gpgpu_n_clusters                      15 # number of processing clusters
-gpgpu_n_cores_per_cluster                    1 # number of simd cores per cluster
-gpgpu_n_cluster_ejection_buffer_size                    8 # number of packets in ejection buffer
-gpgpu_n_ldst_response_buffer_size                    2 # number of response packets in ld/st unit ejection buffer
-gpgpu_shmem_size                   16384 # Size of shared memory per shader core (default 16kB)
-gpgpu_shmem_size                   49152 # Size of shared memory per shader core (default 16kB)
-gpgpu_shmem_size_PrefL1                16384 # Size of shared memory per shader core (default 16kB)
-gpgpu_shmem_size_PrefShared                16384 # Size of shared memory per shader core (default 16kB)
-gpgpu_shmem_num_banks                   32 # Number of banks in the shared memory in each shader core (default 16)
-gpgpu_shmem_limited_broadcast                    0 # Limit shared memory to do one broadcast per cycle (default on)
-gpgpu_shmem_warp_parts                    1 # Number of portions a warp is divided into for shared memory bank conflict check 
-gpgpu_warpdistro_shader                   -1 # Specify which shader core to collect the warp size distribution from
-gpgpu_warp_issue_shader                    0 # Specify which shader core to collect the warp issue distribution from
-gpgpu_local_mem_map                    1 # Mapping from local memory space address to simulated GPU physical address space (default = enabled)
-gpgpu_num_reg_banks                   16 # Number of register banks (default = 8)
-gpgpu_reg_bank_use_warp_id                    0 # Use warp ID in mapping registers to banks (default = off)
-gpgpu_operand_collector_num_units_sp                    6 # number of collector units (default = 4)
-gpgpu_operand_collector_num_units_sfu                    8 # number of collector units (default = 4)
-gpgpu_operand_collector_num_units_mem                    2 # number of collector units (default = 2)
-gpgpu_operand_collector_num_units_gen                    0 # number of collector units (default = 0)
-gpgpu_operand_collector_num_in_ports_sp                    2 # number of collector unit in ports (default = 1)
-gpgpu_operand_collector_num_in_ports_sfu                    1 # number of collector unit in ports (default = 1)
-gpgpu_operand_collector_num_in_ports_mem                    1 # number of collector unit in ports (default = 1)
-gpgpu_operand_collector_num_in_ports_gen                    0 # number of collector unit in ports (default = 0)
-gpgpu_operand_collector_num_out_ports_sp                    2 # number of collector unit in ports (default = 1)
-gpgpu_operand_collector_num_out_ports_sfu                    1 # number of collector unit in ports (default = 1)
-gpgpu_operand_collector_num_out_ports_mem                    1 # number of collector unit in ports (default = 1)
-gpgpu_operand_collector_num_out_ports_gen                    0 # number of collector unit in ports (default = 0)
-gpgpu_coalesce_arch                   13 # Coalescing arch (default = 13, anything else is off for now)
-gpgpu_num_sched_per_core                    2 # Number of warp schedulers per core
-gpgpu_max_insn_issue_per_warp                    1 # Max number of instructions that can be issued per warp in one cycle by scheduler
-gpgpu_simt_core_sim_order                    1 # Select the simulation order of cores in a cluster (0=Fix, 1=Round-Robin)
-gpgpu_pipeline_widths        2,1,1,2,1,1,2 # Pipeline widths ID_OC_SP,ID_OC_SFU,ID_OC_MEM,OC_EX_SP,OC_EX_SFU,OC_EX_MEM,EX_WB
-gpgpu_num_sp_units                     2 # Number of SP units (default=1)
-gpgpu_num_sfu_units                    1 # Number of SF units (default=1)
-gpgpu_num_mem_units                    1 # Number if ldst units (default=1) WARNING: not hooked up to anything
-gpgpu_scheduler                      gto # Scheduler configuration: < lrr | gto | two_level_active > If two_level_active:<num_active_warps>:<inner_prioritization>:<outer_prioritization>For complete list of prioritization values see shader.h enum scheduler_prioritization_typeDefault: gto
-gpgpu_dram_scheduler                    1 # 0 = fifo, 1 = FR-FCFS (defaul)
-gpgpu_dram_partition_queues              8:8:8:8 # i2$:$2d:d2$:$2i
-l2_ideal                               0 # Use a ideal L2 cache that always hit
-gpgpu_cache:dl2     64:128:8,L:B:m:W,A:32:4,4:0,32 # unified banked L2 data cache config  {<nsets>:<bsize>:<assoc>,<rep>:<wr>:<alloc>:<wr_alloc>,<mshr>:<N>:<merge>,<mq>}
-gpgpu_cache:dl2_texture_only                    0 # L2 cache used for texture only
-gpgpu_n_mem                            6 # number of memory modules (e.g. memory controllers) in gpu
-gpgpu_n_sub_partition_per_mchannel                    2 # number of memory subpartition in each memory module
-gpgpu_n_mem_per_ctrlr                    2 # number of memory chips per memory controller
-gpgpu_memlatency_stat                   14 # track and display latency statistics 0x2 enables MC, 0x4 enables queue logs
-gpgpu_frfcfs_dram_sched_queue_size                   16 # 0 = unlimited (default); # entries per chip
-gpgpu_dram_return_queue_size                  116 # 0 = unlimited (default); # entries per chip
-gpgpu_dram_buswidth                    4 # default = 4 bytes (8 bytes per cycle at DDR)
-gpgpu_dram_burst_length                    8 # Burst length of each DRAM request (default = 4 data bus cycle)
-dram_data_command_freq_ratio                    4 # Frequency ratio between DRAM data bus and command bus (default = 2 times, i.e. DDR)
-gpgpu_dram_timing_opt nbk=16:CCD=2:RRD=6:RCD=12:RAS=28:RP=12:RC=40: CL=12:WL=4:CDLR=5:WR=12:nbkgrp=4:CCDL=3:RTPL=2 # DRAM timing parameters = {nbk:tCCD:tRRD:tRCD:tRAS:tRP:tRC:CL:WL:tCDLR:tWR:nbkgrp:tCCDL:tRTPL}
-rop_latency                          120 # ROP queue latency (default 85)
-dram_latency                         100 # DRAM latency (default 30)
-gpgpu_mem_addr_mapping dramid@8;00000000.00000000.00000000.00000000.0000RRRR.RRRRRRRR.BBBCCCCB.CCSSSSSS # mapping memory address to dram model {dramid@<start bit>;<memory address map>}
-gpgpu_mem_addr_test                    0 # run sweep test to check address mapping for aliased address
-gpgpu_mem_address_mask                    1 # 0 = old addressing mask, 1 = new addressing mask, 2 = new add. mask + flipped bank sel and chip sel bits
-gpuwattch_xml_file         gpuwattch.xml # GPUWattch XML file
-power_simulation_enabled                    0 # Turn on power simulator (1=On, 0=Off)
-power_per_cycle_dump                    0 # Dump detailed power output each cycle
-power_trace_enabled                    0 # produce a file for the power trace (1=On, 0=Off)
-power_trace_zlevel                     6 # Compression level of the power trace output log (0=no comp, 9=highest)
-steady_power_levels_enabled                    0 # produce a file for the steady power levels (1=On, 0=Off)
-steady_state_definition                  8:4 # allowed deviation:number of samples
-gpgpu_max_cycle                        0 # terminates gpu simulation early (0 = no limit)
-gpgpu_max_insn                         0 # terminates gpu simulation early (0 = no limit)
-gpgpu_max_cta                          0 # terminates gpu simulation early (0 = no limit)
-gpgpu_runtime_stat                   500 # display runtime statistics such as dram utilization {<freq>:<flag>}
-liveness_message_freq                    1 # Minimum number of seconds between simulation liveness messages (0 = always print)
-gpgpu_flush_l1_cache                    0 # Flush L1 cache at the end of each kernel call
-gpgpu_flush_l2_cache                    0 # Flush L2 cache at the end of each kernel call
-gpgpu_deadlock_detect                    1 # Stop the simulation at deadlock (1=on (default), 0=off)
-gpgpu_ptx_instruction_classification                    0 # if enabled will classify ptx instruction types per kernel (Max 255 kernels now)
-gpgpu_ptx_sim_mode                     0 # Select between Performance (default) or Functional simulation (1)
-gpgpu_clock_domains 700.0:700.0:700.0:924.0 # Clock Domain Frequencies in MhZ {<Core Clock>:<ICNT Clock>:<L2 Clock>:<DRAM Clock>}
-gpgpu_max_concurrent_kernel                    8 # maximum kernels that can run concurrently on GPU
-gpgpu_cflog_interval                    0 # Interval between each snapshot in control flow logger
-visualizer_enabled                     0 # Turn on visualizer output (1=On, 0=Off)
-visualizer_outputfile                 NULL # Specifies the output log file for visualizer
-visualizer_zlevel                      6 # Compression level of the visualizer output log (0=no comp, 9=highest)
-trace_enabled                          0 # Turn on traces
-trace_components                    none # comma seperated list of traces to enable. Complete list found in trace_streams.tup. Default none
-trace_sampling_core                    0 # The core which is printed using CORE_DPRINTF. Default 0
-trace_sampling_memory_partition                   -1 # The memory partition which is printed using MEMPART_DPRINTF. Default -1 (i.e. all)
-enable_ptx_file_line_stats                    1 # Turn on PTX source line statistic profiling. (1 = On)
-ptx_line_stats_filename gpgpu_inst_stats.txt # Output file for PTX source line statistics.
-save_embedded_ptx                      0 # saves ptx files embedded in binary as <n>.ptx
-keep                                   0 # keep intermediate files created by GPGPU-Sim when interfacing with external programs
-gpgpu_ptx_save_converted_ptxplus                    0 # Saved converted ptxplus to a file
-ptx_opcode_latency_int         4,13,4,5,145 # Opcode latencies for integers <ADD,MAX,MUL,MAD,DIV>Default 1,1,19,25,145
-ptx_opcode_latency_fp          4,13,4,5,39 # Opcode latencies for single precision floating points <ADD,MAX,MUL,MAD,DIV>Default 1,1,1,1,30
-ptx_opcode_latency_dp         8,19,8,8,330 # Opcode latencies for double precision floating points <ADD,MAX,MUL,MAD,DIV>Default 8,8,8,8,335
-ptx_opcode_initiation_int            1,2,2,1,8 # Opcode initiation intervals for integers <ADD,MAX,MUL,MAD,DIV>Default 1,1,4,4,32
-ptx_opcode_initiation_fp            1,2,1,1,4 # Opcode initiation intervals for single precision floating points <ADD,MAX,MUL,MAD,DIV>Default 1,1,1,1,5
-ptx_opcode_initiation_dp         8,16,8,8,130 # Opcode initiation intervals for double precision floating points <ADD,MAX,MUL,MAD,DIV>Default 8,8,8,8,130
DRAM Timing Options:
nbk                                    16 # number of banks
CCD                                     2 # column to column delay
RRD                                     6 # minimal delay between activation of rows in different banks
RCD                                    12 # row to column delay
RAS                                    28 # time needed to activate row
RP                                     12 # time needed to precharge (deactivate) row
RC                                     40 # row cycle time
CDLR                                    5 # switching from write to read (changes tWTR)
WR                                     12 # last data-in to row precharge
CL                                     12 # CAS latency
WL                                      4 # Write latency
nbkgrp                                  4 # number of bank groups
CCDL                                    3 # column to column delay between accesses to different bank groups
RTPL                                    2 # read to precharge delay between accesses to different bank groups
Total number of memory sub partition = 12
addr_dec_mask[CHIP]  = 0000000000000000 	high:64 low:0
addr_dec_mask[BK]    = 000000000000e100 	high:16 low:8
addr_dec_mask[ROW]   = 000000000fff0000 	high:28 low:16
addr_dec_mask[COL]   = 0000000000001eff 	high:13 low:0
addr_dec_mask[BURST] = 000000000000003f 	high:6 low:0
sub_partition_id_mask = 0000000000000100
GPGPU-Sim uArch: clock freqs: 700000000.000000:700000000.000000:700000000.000000:924000000.000000
GPGPU-Sim uArch: clock periods: 0.00000000142857142857:0.00000000142857142857:0.00000000142857142857:0.00000000108225108225
*** Initializing Memory Statistics ***
GPGPU-Sim uArch: interconnect node map (shaderID+MemID to icntID)
GPGPU-Sim uArch: Memory nodes ID start from index: 15
GPGPU-Sim uArch:    0   1   2   3   4
GPGPU-Sim uArch:    5   6   7   8   9
GPGPU-Sim uArch:   10  11  12  13  14
GPGPU-Sim uArch:   15  16  17  18  19
GPGPU-Sim uArch:   20  21  22  23  24
GPGPU-Sim uArch:   25  26
GPGPU-Sim uArch: interconnect node reverse map (icntID to shaderID+MemID)
GPGPU-Sim uArch: Memory nodes start from ID: 15
GPGPU-Sim uArch:    0   1   2   3   4
GPGPU-Sim uArch:    5   6   7   8   9
GPGPU-Sim uArch:   10  11  12  13  14
GPGPU-Sim uArch:   15  16  17  18  19
GPGPU-Sim uArch:   20  21  22  23  24
GPGPU-Sim uArch:   25  26
35e4989e7e2383a1c0ff536b7ce586fc  /afs/tu-berlin.de/home/t/tobias.fuchs/irb-ubuntu/Dokumente/new4/MCS1415/CUDA/assignment1/gpumcs/gpu_out
GPGPU-Sim uArch: performance model initialization complete.
GPGPU-Sim PTX: __cudaRegisterFatBinary, fat_cubin_handle = 1, filename=gpu_julia.cu
self exe links to: /afs/tu-berlin.de/home/t/tobias.fuchs/irb-ubuntu/Dokumente/new4/MCS1415/CUDA/assignment1/gpumcs/gpu_out
Running md5sum using "md5sum /afs/tu-berlin.de/home/t/tobias.fuchs/irb-ubuntu/Dokumente/new4/MCS1415/CUDA/assignment1/gpumcs/gpu_out "
Running cuobjdump using "$CUDA_INSTALL_PATH/bin/cuobjdump -ptx -elf -sass /afs/tu-berlin.de/home/t/tobias.fuchs/irb-ubuntu/Dokumente/new4/MCS1415/CUDA/assignment1/gpumcs/gpu_out > _cuobjdump_complete_output_eV3Pge"
Parsing file _cuobjdump_complete_output_eV3Pge
######### cuobjdump parser ########
## Adding new section ELF
Adding arch: sm_10
Adding identifier: gpu_julia.cu
## Adding new section PTX
Adding ptx filename: _cuobjdump_1.ptx
Adding arch: sm_10
Adding identifier: gpu_julia.cu
Done parsing!!!
GPGPU-Sim PTX: __cudaRegisterFunction _Z12calc_fractaliiffPh : hostFun 0x0x401073, fat_cubin_handle = 1
GPGPU-Sim PTX: instruction assembly for function '_Z12calc_fractaliiffPh'...   done.
GPGPU-Sim PTX: finding reconvergence points for '_Z12calc_fractaliiffPh'...
GPGPU-Sim PTX: Finding dominators for '_Z12calc_fractaliiffPh'...
GPGPU-Sim PTX: Finding immediate dominators for '_Z12calc_fractaliiffPh'...
GPGPU-Sim PTX: Finding postdominators for '_Z12calc_fractaliiffPh'...
GPGPU-Sim PTX: Finding immediate postdominators for '_Z12calc_fractaliiffPh'...
GPGPU-Sim PTX: pre-decoding instructions for '_Z12calc_fractaliiffPh'...
GPGPU-Sim PTX: reconvergence points for _Z12calc_fractaliiffPh...
GPGPU-Sim PTX:  1 (potential) branch divergence @  PC=0x100 (_1.ptx:101) @%p1 bra $Lt_0_258;
GPGPU-Sim PTX:    immediate post dominator      @  PC=0x158 (_1.ptx:117) ld.param.s32 %r4, [__cudaparm__Z12calc_fractaliiffPh_width];
GPGPU-Sim PTX:  2 (potential) branch divergence @  PC=0x150 (_1.ptx:114) @%p2 bra $Lt_0_2306;
GPGPU-Sim PTX:    immediate post dominator      @  PC=0x158 (_1.ptx:117) ld.param.s32 %r4, [__cudaparm__Z12calc_fractaliiffPh_width];
GPGPU-Sim PTX: ... end of reconvergence points for _Z12calc_fractaliiffPh
GPGPU-Sim PTX: ... done pre-decoding instructions for '_Z12calc_fractaliiffPh'.
GPGPU-Sim PTX: finished parsing EMBEDDED .ptx file _1.ptx
Adding _cuobjdump_1.ptx with cubin handle 1
GPGPU-Sim PTX: extracting embedded .ptx to temporary file "_ptx_IaYi6x"
Running: cat _ptx_IaYi6x | sed 's/.version 1.5/.version 1.4/' | sed 's/, texmode_independent//' | sed 's/\(\.extern \.const\[1\] .b8 \w\+\)\[\]/\1\[1\]/' | sed 's/const\[.\]/const\[0\]/g' > _ptx2_mZloWR
GPGPU-Sim PTX: generating ptxinfo using "$CUDA_INSTALL_PATH/bin/ptxas --gpu-name=sm_20 -v _ptx2_mZloWR --output-file  /dev/null 2> _ptx_IaYi6xinfo"
GPGPU-Sim PTX: Kernel '_Z12calc_fractaliiffPh' : regs=9, lmem=0, smem=0, cmem=60
GPGPU-Sim PTX: removing ptxinfo using "rm -f _ptx_IaYi6x _ptx2_mZloWR _ptx_IaYi6xinfo"
GPGPU-Sim PTX: loading globals with explicit initializers... 
GPGPU-Sim PTX: finished loading globals (0 bytes total).
GPGPU-Sim PTX: loading constants with explicit initializers...  done.

GPGPU-Sim PTX: cudaLaunch for 0x0x401073 (mode=performance simulation) on stream 0
GPGPU-Sim PTX: pushing kernel '_Z12calc_fractaliiffPh' to stream 0, gridDim= (8,256,1) blockDim = (32,1,1) 
kernel '_Z12calc_fractaliiffPh' transfer to GPU hardware scheduler
GPGPU-Sim uArch: Shader 1 bind to kernel 1 '_Z12calc_fractaliiffPh'
GPGPU-Sim uArch: CTA/core = 8, limited by: cta_limit
GPGPU-Sim uArch: core:  1, cta: 0 initialized @(1,0)
GPGPU-Sim uArch: Shader 2 bind to kernel 1 '_Z12calc_fractaliiffPh'
GPGPU-Sim uArch: core:  2, cta: 0 initialized @(1,0)
GPGPU-Sim uArch: Shader 3 bind to kernel 1 '_Z12calc_fractaliiffPh'
GPGPU-Sim uArch: core:  3, cta: 0 initialized @(1,0)
GPGPU-Sim uArch: Shader 4 bind to kernel 1 '_Z12calc_fractaliiffPh'
GPGPU-Sim uArch: core:  4, cta: 0 initialized @(1,0)
GPGPU-Sim uArch: Shader 5 bind to kernel 1 '_Z12calc_fractaliiffPh'
GPGPU-Sim uArch: core:  5, cta: 0 initialized @(1,0)
GPGPU-Sim uArch: Shader 6 bind to kernel 1 '_Z12calc_fractaliiffPh'
GPGPU-Sim uArch: core:  6, cta: 0 initialized @(1,0)
GPGPU-Sim uArch: Shader 7 bind to kernel 1 '_Z12calc_fractaliiffPh'
GPGPU-Sim uArch: core:  7, cta: 0 initialized @(1,0)
GPGPU-Sim uArch: Shader 8 bind to kernel 1 '_Z12calc_fractaliiffPh'
GPGPU-Sim uArch: core:  8, cta: 0 initialized @(1,0)
GPGPU-Sim uArch: Shader 9 bind to kernel 1 '_Z12calc_fractaliiffPh'
GPGPU-Sim uArch: core:  9, cta: 0 initialized @(1,0)
GPGPU-Sim uArch: Shader 10 bind to kernel 1 '_Z12calc_fractaliiffPh'
GPGPU-Sim uArch: core: 10, cta: 0 initialized @(1,0)
GPGPU-Sim uArch: Shader 11 bind to kernel 1 '_Z12calc_fractaliiffPh'
GPGPU-Sim uArch: core: 11, cta: 0 initialized @(1,0)
GPGPU-Sim uArch: Shader 12 bind to kernel 1 '_Z12calc_fractaliiffPh'
GPGPU-Sim uArch: core: 12, cta: 0 initialized @(1,0)
GPGPU-Sim uArch: Shader 13 bind to kernel 1 '_Z12calc_fractaliiffPh'
GPGPU-Sim uArch: core: 13, cta: 0 initialized @(1,0)
GPGPU-Sim uArch: Shader 14 bind to kernel 1 '_Z12calc_fractaliiffPh'
GPGPU-Sim uArch: core: 14, cta: 0 initialized @(1,0)
GPGPU-Sim uArch: Shader 0 bind to kernel 1 '_Z12calc_fractaliiffPh'
GPGPU-Sim uArch: core:  0, cta: 0 initialized @(1,0)
GPGPU-Sim uArch: core:  1, cta: 1 initialized @(2,0)
GPGPU-Sim uArch: core:  2, cta: 1 initialized @(2,0)
GPGPU-Sim uArch: core:  3, cta: 1 initialized @(2,0)
GPGPU-Sim uArch: core:  4, cta: 1 initialized @(2,0)
GPGPU-Sim uArch: core:  5, cta: 1 initialized @(2,0)
GPGPU-Sim uArch: core:  6, cta: 1 initialized @(2,0)
GPGPU-Sim uArch: core:  7, cta: 1 initialized @(2,0)
GPGPU-Sim uArch: core:  8, cta: 1 initialized @(2,0)
GPGPU-Sim uArch: core:  9, cta: 1 initialized @(2,0)
GPGPU-Sim uArch: core: 10, cta: 1 initialized @(2,0)
GPGPU-Sim uArch: core: 11, cta: 1 initialized @(2,0)
GPGPU-Sim uArch: core: 12, cta: 1 initialized @(2,0)
GPGPU-Sim uArch: core: 13, cta: 1 initialized @(2,0)
GPGPU-Sim uArch: core: 14, cta: 1 initialized @(2,0)
GPGPU-Sim uArch: core:  0, cta: 1 initialized @(2,0)
GPGPU-Sim uArch: core:  1, cta: 2 initialized @(3,0)
GPGPU-Sim uArch: core:  2, cta: 2 initialized @(3,0)
GPGPU-Sim uArch: core:  3, cta: 2 initialized @(3,0)
GPGPU-Sim uArch: core:  4, cta: 2 initialized @(3,0)
GPGPU-Sim uArch: core:  5, cta: 2 initialized @(3,0)
GPGPU-Sim uArch: core:  6, cta: 2 initialized @(3,0)
GPGPU-Sim uArch: core:  7, cta: 2 initialized @(3,0)
GPGPU-Sim uArch: core:  8, cta: 2 initialized @(3,0)
GPGPU-Sim uArch: core:  9, cta: 2 initialized @(3,0)
GPGPU-Sim uArch: core: 10, cta: 2 initialized @(3,0)
GPGPU-Sim uArch: core: 11, cta: 2 initialized @(3,0)
GPGPU-Sim uArch: core: 12, cta: 2 initialized @(3,0)
GPGPU-Sim uArch: core: 13, cta: 2 initialized @(3,0)
GPGPU-Sim uArch: core: 14, cta: 2 initialized @(3,0)
GPGPU-Sim uArch: core:  0, cta: 2 initialized @(3,0)
GPGPU-Sim uArch: core:  1, cta: 3 initialized @(4,0)
GPGPU-Sim uArch: core:  2, cta: 3 initialized @(4,0)
GPGPU-Sim uArch: core:  3, cta: 3 initialized @(4,0)
GPGPU-Sim uArch: core:  4, cta: 3 initialized @(4,0)
GPGPU-Sim uArch: core:  5, cta: 3 initialized @(4,0)
GPGPU-Sim uArch: core:  6, cta: 3 initialized @(4,0)
GPGPU-Sim uArch: core:  7, cta: 3 initialized @(4,0)
GPGPU-Sim uArch: core:  8, cta: 3 initialized @(4,0)
GPGPU-Sim uArch: core:  9, cta: 3 initialized @(4,0)
GPGPU-Sim uArch: core: 10, cta: 3 initialized @(4,0)
GPGPU-Sim uArch: core: 11, cta: 3 initialized @(4,0)
GPGPU-Sim uArch: core: 12, cta: 3 initialized @(4,0)
GPGPU-Sim uArch: core: 13, cta: 3 initialized @(4,0)
GPGPU-Sim uArch: core: 14, cta: 3 initialized @(4,0)
GPGPU-Sim uArch: core:  0, cta: 3 initialized @(4,0)
GPGPU-Sim uArch: core:  1, cta: 4 initialized @(5,0)
GPGPU-Sim uArch: core:  2, cta: 4 initialized @(5,0)
GPGPU-Sim uArch: core:  3, cta: 4 initialized @(5,0)
GPGPU-Sim uArch: core:  4, cta: 4 initialized @(5,0)
GPGPU-Sim uArch: core:  5, cta: 4 initialized @(5,0)
GPGPU-Sim uArch: core:  6, cta: 4 initialized @(5,0)
GPGPU-Sim uArch: core:  7, cta: 4 initialized @(5,0)
GPGPU-Sim uArch: core:  8, cta: 4 initialized @(5,0)
GPGPU-Sim uArch: core:  9, cta: 4 initialized @(5,0)
GPGPU-Sim uArch: core: 10, cta: 4 initialized @(5,0)
GPGPU-Sim uArch: core: 11, cta: 4 initialized @(5,0)
GPGPU-Sim uArch: core: 12, cta: 4 initialized @(5,0)
GPGPU-Sim uArch: core: 13, cta: 4 initialized @(5,0)
GPGPU-Sim uArch: core: 14, cta: 4 initialized @(5,0)
GPGPU-Sim uArch: core:  0, cta: 4 initialized @(5,0)
GPGPU-Sim uArch: core:  1, cta: 5 initialized @(6,0)
GPGPU-Sim uArch: core:  2, cta: 5 initialized @(6,0)
GPGPU-Sim uArch: core:  3, cta: 5 initialized @(6,0)
GPGPU-Sim uArch: core:  4, cta: 5 initialized @(6,0)
GPGPU-Sim uArch: core:  5, cta: 5 initialized @(6,0)
GPGPU-Sim uArch: core:  6, cta: 5 initialized @(6,0)
GPGPU-Sim uArch: core:  7, cta: 5 initialized @(6,0)
GPGPU-Sim uArch: core:  8, cta: 5 initialized @(6,0)
GPGPU-Sim uArch: core:  9, cta: 5 initialized @(6,0)
GPGPU-Sim uArch: core: 10, cta: 5 initialized @(6,0)
GPGPU-Sim uArch: core: 11, cta: 5 initialized @(6,0)
GPGPU-Sim uArch: core: 12, cta: 5 initialized @(6,0)
GPGPU-Sim uArch: core: 13, cta: 5 initialized @(6,0)
GPGPU-Sim uArch: core: 14, cta: 5 initialized @(6,0)
GPGPU-Sim uArch: core:  0, cta: 5 initialized @(6,0)
GPGPU-Sim uArch: core:  1, cta: 6 initialized @(7,0)
GPGPU-Sim uArch: core:  2, cta: 6 initialized @(7,0)
GPGPU-Sim uArch: core:  3, cta: 6 initialized @(7,0)
GPGPU-Sim uArch: core:  4, cta: 6 initialized @(7,0)
GPGPU-Sim uArch: core:  5, cta: 6 initialized @(7,0)
GPGPU-Sim uArch: core:  6, cta: 6 initialized @(7,0)
GPGPU-Sim uArch: core:  7, cta: 6 initialized @(7,0)
GPGPU-Sim uArch: core:  8, cta: 6 initialized @(7,0)
GPGPU-Sim uArch: core:  9, cta: 6 initialized @(7,0)
GPGPU-Sim uArch: core: 10, cta: 6 initialized @(7,0)
GPGPU-Sim uArch: core: 11, cta: 6 initialized @(7,0)
GPGPU-Sim uArch: core: 12, cta: 6 initialized @(7,0)
GPGPU-Sim uArch: core: 13, cta: 6 initialized @(7,0)
GPGPU-Sim uArch: core: 14, cta: 6 initialized @(7,0)
GPGPU-Sim uArch: core:  0, cta: 6 initialized @(7,0)
GPGPU-Sim uArch: core:  1, cta: 7 initialized @(8,0)
GPGPU-Sim uArch: core:  2, cta: 7 initialized @(8,0)
GPGPU-Sim uArch: core:  3, cta: 7 initialized @(8,0)
GPGPU-Sim uArch: core:  4, cta: 7 initialized @(8,0)
GPGPU-Sim uArch: core:  5, cta: 7 initialized @(8,0)
GPGPU-Sim uArch: core:  6, cta: 7 initialized @(8,0)
GPGPU-Sim uArch: core:  7, cta: 7 initialized @(8,0)
GPGPU-Sim uArch: core:  8, cta: 7 initialized @(8,0)
GPGPU-Sim uArch: core:  9, cta: 7 initialized @(8,0)
GPGPU-Sim uArch: core: 10, cta: 7 initialized @(8,0)
GPGPU-Sim uArch: core: 11, cta: 7 initialized @(8,0)
GPGPU-Sim uArch: core: 12, cta: 7 initialized @(8,0)
GPGPU-Sim uArch: core: 13, cta: 7 initialized @(8,0)
GPGPU-Sim uArch: core: 14, cta: 7 initialized @(8,0)
GPGPU-Sim uArch: core:  0, cta: 7 initialized @(8,0)
GPGPU-Sim uArch: cycles simulated: 500  inst.: 30720 (ipc=61.4) sim_rate=30720 (inst/sec) elapsed = 0:0:00:01 / Fri Jan 16 06:10:04 2015
GPGPU-Sim PTX: 100000 instructions simulated : ctaid=(1,7,0) tid=(31,0,0)
GPGPU-Sim PTX: 200000 instructions simulated : ctaid=(0,11,0) tid=(31,0,0)
GPGPU-Sim PTX: 300000 instructions simulated : ctaid=(2,7,0) tid=(6,0,0)
GPGPU-Sim PTX: 400000 instructions simulated : ctaid=(0,4,0) tid=(30,0,0)
GPGPU-Sim PTX: 500000 instructions simulated : ctaid=(3,5,0) tid=(27,0,0)
GPGPU-Sim PTX: 600000 instructions simulated : ctaid=(4,4,0) tid=(28,0,0)
GPGPU-Sim PTX: 700000 instructions simulated : ctaid=(1,13,0) tid=(30,0,0)
GPGPU-Sim uArch: Shader 9 finished CTA #0 (2331,0), 7 CTAs running
GPGPU-Sim uArch: core:  9, cta: 0 initialized @(2332,0)
GPGPU-Sim uArch: Shader 1 finished CTA #0 (2334,0), 7 CTAs running
GPGPU-Sim uArch: core:  1, cta: 0 initialized @(2335,0)
GPGPU-Sim uArch: Shader 3 finished CTA #2 (2340,0), 7 CTAs running
GPGPU-Sim uArch: core:  3, cta: 2 initialized @(2341,0)
GPGPU-Sim uArch: Shader 4 finished CTA #3 (2353,0), 7 CTAs running
GPGPU-Sim uArch: core:  4, cta: 3 initialized @(2354,0)
GPGPU-Sim uArch: Shader 2 finished CTA #0 (2356,0), 7 CTAs running
GPGPU-Sim uArch: core:  2, cta: 0 initialized @(2357,0)
GPGPU-Sim uArch: Shader 2 finished CTA #1 (2358,0), 7 CTAs running
GPGPU-Sim uArch: core:  2, cta: 1 initialized @(2359,0)
GPGPU-Sim uArch: Shader 10 finished CTA #1 (2360,0), 7 CTAs running
GPGPU-Sim uArch: core: 10, cta: 1 initialized @(2361,0)
GPGPU-Sim uArch: Shader 11 finished CTA #2 (2363,0), 7 CTAs running
GPGPU-Sim uArch: core: 11, cta: 2 initialized @(2364,0)
GPGPU-Sim uArch: Shader 12 finished CTA #3 (2373,0), 7 CTAs running
GPGPU-Sim uArch: core: 12, cta: 3 initialized @(2374,0)
GPGPU-Sim uArch: Shader 3 finished CTA #1 (2375,0), 7 CTAs running
GPGPU-Sim uArch: core:  3, cta: 1 initialized @(2376,0)
GPGPU-Sim uArch: Shader 5 finished CTA #4 (2378,0), 7 CTAs running
GPGPU-Sim uArch: core:  5, cta: 4 initialized @(2379,0)
GPGPU-Sim uArch: Shader 6 finished CTA #5 (2383,0), 7 CTAs running
GPGPU-Sim uArch: core:  6, cta: 5 initialized @(2384,0)
GPGPU-Sim uArch: Shader 12 finished CTA #2 (2387,0), 7 CTAs running
GPGPU-Sim uArch: core: 12, cta: 2 initialized @(2388,0)
GPGPU-Sim uArch: Shader 10 finished CTA #0 (2391,0), 7 CTAs running
GPGPU-Sim uArch: core: 10, cta: 0 initialized @(2392,0)
GPGPU-Sim uArch: Shader 13 finished CTA #4 (2392,0), 7 CTAs running
GPGPU-Sim uArch: core: 13, cta: 4 initialized @(2393,0)
GPGPU-Sim uArch: Shader 11 finished CTA #1 (2397,0), 7 CTAs running
GPGPU-Sim uArch: core: 11, cta: 1 initialized @(2398,0)
GPGPU-Sim uArch: Shader 14 finished CTA #5 (2427,0), 7 CTAs running
GPGPU-Sim uArch: core: 14, cta: 5 initialized @(2428,0)
GPGPU-Sim uArch: Shader 4 finished CTA #2 (2445,0), 7 CTAs running
GPGPU-Sim uArch: core:  4, cta: 2 initialized @(2446,0)
GPGPU-Sim uArch: Shader 5 finished CTA #3 (2457,0), 7 CTAs running
GPGPU-Sim uArch: core:  5, cta: 3 initialized @(2458,0)
GPGPU-Sim uArch: Shader 7 finished CTA #6 (2484,0), 7 CTAs running
GPGPU-Sim uArch: core:  7, cta: 6 initialized @(2485,0)
GPGPU-Sim PTX: 800000 instructions simulated : ctaid=(5,4,0) tid=(7,0,0)
GPGPU-Sim uArch: Shader 0 finished CTA #6 (2492,0), 7 CTAs running
GPGPU-Sim uArch: core:  0, cta: 6 initialized @(2493,0)
GPGPU-Sim uArch: cycles simulated: 2500  inst.: 759725 (ipc=303.9) sim_rate=379862 (inst/sec) elapsed = 0:0:00:02 / Fri Jan 16 06:10:06 2015
GPGPU-Sim uArch: Shader 8 finished CTA #7 (2594,0), 7 CTAs running
GPGPU-Sim uArch: core:  8, cta: 7 initialized @(2595,0)
GPGPU-Sim PTX: 900000 instructions simulated : ctaid=(3,5,0) tid=(13,0,0)
GPGPU-Sim PTX: 1000000 instructions simulated : ctaid=(3,3,0) tid=(3,0,0)
GPGPU-Sim PTX: 1100000 instructions simulated : ctaid=(0,17,0) tid=(30,0,0)
GPGPU-Sim uArch: Shader 2 finished CTA #2 (3197,0), 7 CTAs running
GPGPU-Sim uArch: core:  2, cta: 2 initialized @(3198,0)
GPGPU-Sim uArch: Shader 1 finished CTA #1 (3198,0), 7 CTAs running
GPGPU-Sim uArch: core:  1, cta: 1 initialized @(3199,0)
GPGPU-Sim uArch: Shader 8 finished CTA #0 (3201,0), 7 CTAs running
GPGPU-Sim uArch: core:  8, cta: 0 initialized @(3202,0)
GPGPU-Sim uArch: Shader 10 finished CTA #2 (3206,0), 7 CTAs running
GPGPU-Sim uArch: core: 10, cta: 2 initialized @(3207,0)
GPGPU-Sim uArch: Shader 9 finished CTA #1 (3222,0), 7 CTAs running
GPGPU-Sim uArch: core:  9, cta: 1 initialized @(3223,0)
GPGPU-Sim PTX: 1200000 instructions simulated : ctaid=(4,16,0) tid=(13,0,0)
GPGPU-Sim uArch: Shader 0 finished CTA #0 (3233,0), 7 CTAs running
GPGPU-Sim uArch: core:  0, cta: 0 initialized @(3234,0)
GPGPU-Sim uArch: Shader 7 finished CTA #0 (3258,0), 7 CTAs running
GPGPU-Sim uArch: core:  7, cta: 0 initialized @(3259,0)
GPGPU-Sim uArch: Shader 1 finished CTA #2 (3268,0), 7 CTAs running
GPGPU-Sim uArch: Shader 3 finished CTA #4 (3268,0), 7 CTAs running
GPGPU-Sim uArch: core:  1, cta: 2 initialized @(3269,0)
GPGPU-Sim uArch: core:  3, cta: 4 initialized @(3269,0)
GPGPU-Sim uArch: Shader 3 finished CTA #3 (3288,0), 7 CTAs running
GPGPU-Sim uArch: core:  3, cta: 3 initialized @(3289,0)
GPGPU-Sim uArch: Shader 8 finished CTA #1 (3307,0), 7 CTAs running
GPGPU-Sim uArch: core:  8, cta: 1 initialized @(3308,0)
GPGPU-Sim uArch: Shader 9 finished CTA #2 (3310,0), 7 CTAs running
GPGPU-Sim uArch: core:  9, cta: 2 initialized @(3311,0)
GPGPU-Sim uArch: Shader 4 finished CTA #5 (3317,0), 7 CTAs running
GPGPU-Sim uArch: core:  4, cta: 5 initialized @(3318,0)
GPGPU-Sim uArch: Shader 4 finished CTA #4 (3330,0), 7 CTAs running
GPGPU-Sim uArch: core:  4, cta: 4 initialized @(3331,0)
GPGPU-Sim uArch: Shader 5 finished CTA #5 (3337,0), 7 CTAs running
GPGPU-Sim uArch: core:  5, cta: 5 initialized @(3338,0)
GPGPU-Sim uArch: Shader 11 finished CTA #4 (3341,0), 7 CTAs running
GPGPU-Sim uArch: core: 11, cta: 4 initialized @(3342,0)
GPGPU-Sim uArch: Shader 11 finished CTA #3 (3345,0), 7 CTAs running
GPGPU-Sim uArch: core: 11, cta: 3 initialized @(3346,0)
GPGPU-Sim uArch: Shader 12 finished CTA #4 (3361,0), 7 CTAs running
GPGPU-Sim uArch: core: 12, cta: 4 initialized @(3362,0)
GPGPU-Sim uArch: Shader 2 finished CTA #3 (3406,0), 7 CTAs running
GPGPU-Sim uArch: core:  2, cta: 3 initialized @(3407,0)
GPGPU-Sim uArch: Shader 10 finished CTA #3 (3414,0), 7 CTAs running
GPGPU-Sim uArch: core: 10, cta: 3 initialized @(3415,0)
GPGPU-Sim uArch: Shader 13 finished CTA #5 (3415,0), 7 CTAs running
GPGPU-Sim uArch: core: 13, cta: 5 initialized @(3416,0)
GPGPU-Sim uArch: Shader 5 finished CTA #6 (3445,0), 7 CTAs running
GPGPU-Sim uArch: core:  5, cta: 6 initialized @(3446,0)
GPGPU-Sim uArch: Shader 12 finished CTA #5 (3453,0), 7 CTAs running
GPGPU-Sim uArch: core: 12, cta: 5 initialized @(3454,0)
GPGPU-Sim uArch: Shader 0 finished CTA #1 (3456,0), 7 CTAs running
GPGPU-Sim uArch: core:  0, cta: 1 initialized @(3457,0)
GPGPU-Sim uArch: Shader 6 finished CTA #6 (3463,0), 7 CTAs running
GPGPU-Sim PTX: 1300000 instructions simulated : ctaid=(0,18,0) tid=(20,0,0)
GPGPU-Sim uArch: core:  6, cta: 6 initialized @(3464,0)
GPGPU-Sim uArch: Shader 7 finished CTA #1 (3464,0), 7 CTAs running
GPGPU-Sim uArch: core:  7, cta: 1 initialized @(3465,0)
GPGPU-Sim uArch: Shader 8 finished CTA #2 (3467,0), 7 CTAs running
GPGPU-Sim uArch: core:  8, cta: 2 initialized @(3468,0)
GPGPU-Sim uArch: Shader 6 finished CTA #0 (3472,0), 7 CTAs running
GPGPU-Sim uArch: core:  6, cta: 0 initialized @(3473,0)
GPGPU-Sim uArch: Shader 1 finished CTA #3 (3479,0), 7 CTAs running
GPGPU-Sim uArch: core:  1, cta: 3 initialized @(3480,0)
GPGPU-Sim uArch: Shader 3 finished CTA #5 (3483,0), 7 CTAs running
GPGPU-Sim uArch: core:  3, cta: 5 initialized @(3484,0)
GPGPU-Sim uArch: Shader 2 finished CTA #4 (3485,0), 7 CTAs running
GPGPU-Sim uArch: core:  2, cta: 4 initialized @(3486,0)
GPGPU-Sim uArch: Shader 13 finished CTA #6 (3492,0), 7 CTAs running
GPGPU-Sim uArch: core: 13, cta: 6 initialized @(3493,0)
GPGPU-Sim uArch: Shader 10 finished CTA #4 (3496,0), 7 CTAs running
GPGPU-Sim uArch: core: 10, cta: 4 initialized @(3497,0)
GPGPU-Sim uArch: Shader 6 finished CTA #7 (3497,0), 7 CTAs running
GPGPU-Sim uArch: core:  6, cta: 7 initialized @(3498,0)
GPGPU-Sim uArch: cycles simulated: 3500  inst.: 1240572 (ipc=354.4) sim_rate=413524 (inst/sec) elapsed = 0:0:00:03 / Fri Jan 16 06:10:07 2015
GPGPU-Sim uArch: Shader 9 finished CTA #3 (3504,0), 7 CTAs running
GPGPU-Sim uArch: core:  9, cta: 3 initialized @(3505,0)
GPGPU-Sim uArch: Shader 14 finished CTA #0 (3505,0), 7 CTAs running
GPGPU-Sim uArch: core: 14, cta: 0 initialized @(3506,0)
GPGPU-Sim uArch: Shader 5 finished CTA #7 (3515,0), 7 CTAs running
GPGPU-Sim uArch: core:  5, cta: 7 initialized @(3516,0)
GPGPU-Sim uArch: Shader 14 finished CTA #6 (3524,0), 7 CTAs running
GPGPU-Sim uArch: core: 14, cta: 6 initialized @(3525,0)
GPGPU-Sim uArch: Shader 11 finished CTA #5 (3530,0), 7 CTAs running
GPGPU-Sim uArch: core: 11, cta: 5 initialized @(3531,0)
GPGPU-Sim uArch: Shader 7 finished CTA #7 (3538,0), 7 CTAs running
GPGPU-Sim uArch: core:  7, cta: 7 initialized @(3539,0)
GPGPU-Sim uArch: Shader 4 finished CTA #6 (3569,0), 7 CTAs running
GPGPU-Sim uArch: core:  4, cta: 6 initialized @(3570,0)
GPGPU-Sim uArch: Shader 12 finished CTA #6 (3588,0), 7 CTAs running
GPGPU-Sim uArch: Shader 14 finished CTA #7 (3588,0), 7 CTAs running
GPGPU-Sim uArch: core: 12, cta: 6 initialized @(3589,0)
GPGPU-Sim uArch: core: 14, cta: 7 initialized @(3589,0)
GPGPU-Sim uArch: Shader 0 finished CTA #7 (3608,0), 7 CTAs running
GPGPU-Sim uArch: core:  0, cta: 7 initialized @(3609,0)
GPGPU-Sim uArch: Shader 13 finished CTA #7 (3612,0), 7 CTAs running
GPGPU-Sim uArch: core: 13, cta: 7 initialized @(3613,0)
GPGPU-Sim PTX: 1400000 instructions simulated : ctaid=(2,16,0) tid=(22,0,0)
GPGPU-Sim PTX: 1500000 instructions simulated : ctaid=(6,22,0) tid=(20,0,0)
GPGPU-Sim PTX: 1600000 instructions simulated : ctaid=(1,15,0) tid=(22,0,0)
GPGPU-Sim PTX: 1700000 instructions simulated : ctaid=(6,21,0) tid=(5,0,0)
GPGPU-Sim PTX: 1800000 instructions simulated : ctaid=(3,4,0) tid=(21,0,0)
GPGPU-Sim uArch: cycles simulated: 4500  inst.: 1702705 (ipc=378.4) sim_rate=425676 (inst/sec) elapsed = 0:0:00:04 / Fri Jan 16 06:10:08 2015
GPGPU-Sim uArch: Shader 5 finished CTA #0 (4668,0), 7 CTAs running
GPGPU-Sim uArch: core:  5, cta: 0 initialized @(4669,0)
GPGPU-Sim PTX: 1900000 instructions simulated : ctaid=(6,21,0) tid=(5,0,0)
GPGPU-Sim uArch: Shader 6 finished CTA #1 (4737,0), 7 CTAs running
GPGPU-Sim uArch: core:  6, cta: 1 initialized @(4738,0)
GPGPU-Sim uArch: Shader 13 finished CTA #0 (4738,0), 7 CTAs running
GPGPU-Sim uArch: core: 13, cta: 0 initialized @(4739,0)
GPGPU-Sim uArch: Shader 11 finished CTA #1 (4755,0), 7 CTAs running
GPGPU-Sim uArch: core: 11, cta: 1 initialized @(4756,0)
GPGPU-Sim uArch: Shader 11 finished CTA #2 (4763,0), 7 CTAs running
GPGPU-Sim uArch: core: 11, cta: 2 initialized @(4764,0)
GPGPU-Sim uArch: Shader 13 finished CTA #4 (4772,0), 7 CTAs running
GPGPU-Sim uArch: core: 13, cta: 4 initialized @(4773,0)
GPGPU-Sim uArch: Shader 10 finished CTA #1 (4783,0), 7 CTAs running
GPGPU-Sim uArch: core: 10, cta: 1 initialized @(4784,0)
GPGPU-Sim uArch: Shader 10 finished CTA #0 (4797,0), 7 CTAs running
GPGPU-Sim uArch: core: 10, cta: 0 initialized @(4798,0)
GPGPU-Sim uArch: Shader 2 finished CTA #1 (4810,0), 7 CTAs running
GPGPU-Sim uArch: core:  2, cta: 1 initialized @(4811,0)
GPGPU-Sim PTX: 2000000 instructions simulated : ctaid=(3,8,0) tid=(10,0,0)
GPGPU-Sim uArch: Shader 14 finished CTA #1 (4999,0), 7 CTAs running
GPGPU-Sim uArch: core: 14, cta: 1 initialized @(5000,0)
GPGPU-Sim PTX: 2100000 instructions simulated : ctaid=(1,17,0) tid=(12,0,0)
GPGPU-Sim uArch: Shader 8 finished CTA #7 (5176,0), 7 CTAs running
GPGPU-Sim uArch: core:  8, cta: 7 initialized @(5177,0)
GPGPU-Sim PTX: 2200000 instructions simulated : ctaid=(3,11,0) tid=(30,0,0)
GPGPU-Sim uArch: Shader 2 finished CTA #2 (5436,0), 7 CTAs running
GPGPU-Sim uArch: core:  2, cta: 2 initialized @(5437,0)
GPGPU-Sim uArch: Shader 1 finished CTA #1 (5487,0), 7 CTAs running
GPGPU-Sim uArch: core:  1, cta: 1 initialized @(5488,0)
GPGPU-Sim uArch: Shader 3 finished CTA #3 (5651,0), 7 CTAs running
GPGPU-Sim uArch: core:  3, cta: 3 initialized @(5652,0)
GPGPU-Sim uArch: Shader 11 finished CTA #3 (5686,0), 7 CTAs running
GPGPU-Sim uArch: core: 11, cta: 3 initialized @(5687,0)
GPGPU-Sim PTX: 2300000 instructions simulated : ctaid=(0,25,0) tid=(22,0,0)
GPGPU-Sim uArch: Shader 12 finished CTA #4 (5732,0), 7 CTAs running
GPGPU-Sim uArch: core: 12, cta: 4 initialized @(5733,0)
GPGPU-Sim uArch: Shader 3 finished CTA #4 (5754,0), 7 CTAs running
GPGPU-Sim uArch: core:  3, cta: 4 initialized @(5755,0)
GPGPU-Sim uArch: Shader 11 finished CTA #4 (5799,0), 7 CTAs running
GPGPU-Sim uArch: core: 11, cta: 4 initialized @(5800,0)
GPGPU-Sim uArch: Shader 6 finished CTA #6 (5826,0), 7 CTAs running
GPGPU-Sim uArch: core:  6, cta: 6 initialized @(5827,0)
GPGPU-Sim uArch: Shader 1 finished CTA #2 (5868,0), 7 CTAs running
GPGPU-Sim uArch: core:  1, cta: 2 initialized @(5869,0)
GPGPU-Sim uArch: Shader 10 finished CTA #4 (5892,0), 7 CTAs running
GPGPU-Sim uArch: core: 10, cta: 4 initialized @(5893,0)
GPGPU-Sim uArch: Shader 7 finished CTA #1 (5894,0), 7 CTAs running
GPGPU-Sim uArch: core:  7, cta: 1 initialized @(5895,0)
GPGPU-Sim uArch: Shader 6 finished CTA #7 (5906,0), 7 CTAs running
GPGPU-Sim uArch: core:  6, cta: 7 initialized @(5907,0)
GPGPU-Sim uArch: Shader 0 finished CTA #1 (5929,0), 7 CTAs running
GPGPU-Sim uArch: core:  0, cta: 1 initialized @(5930,0)
GPGPU-Sim uArch: Shader 13 finished CTA #6 (5978,0), 7 CTAs running
GPGPU-Sim uArch: core: 13, cta: 6 initialized @(5979,0)
GPGPU-Sim PTX: 2400000 instructions simulated : ctaid=(1,24,0) tid=(10,0,0)
GPGPU-Sim uArch: cycles simulated: 6000  inst.: 2266244 (ipc=377.7) sim_rate=453248 (inst/sec) elapsed = 0:0:00:05 / Fri Jan 16 06:10:09 2015
GPGPU-Sim uArch: Shader 4 finished CTA #6 (6020,0), 7 CTAs running
GPGPU-Sim uArch: core:  4, cta: 6 initialized @(6021,0)
GPGPU-Sim uArch: Shader 12 finished CTA #6 (6131,0), 7 CTAs running
GPGPU-Sim uArch: core: 12, cta: 6 initialized @(6132,0)
GPGPU-Sim uArch: Shader 7 finished CTA #7 (6140,0), 7 CTAs running
GPGPU-Sim uArch: core:  7, cta: 7 initialized @(6141,0)
GPGPU-Sim PTX: 2500000 instructions simulated : ctaid=(7,23,0) tid=(7,0,0)
GPGPU-Sim PTX: 2600000 instructions simulated : ctaid=(2,7,0) tid=(16,0,0)
GPGPU-Sim PTX: 2700000 instructions simulated : ctaid=(6,25,0) tid=(12,0,0)
GPGPU-Sim uArch: Shader 11 finished CTA #1 (7151,0), 7 CTAs running
GPGPU-Sim uArch: core: 11, cta: 1 initialized @(7152,0)
GPGPU-Sim uArch: Shader 13 finished CTA #0 (7177,0), 7 CTAs running
GPGPU-Sim uArch: core: 13, cta: 0 initialized @(7178,0)
GPGPU-Sim uArch: Shader 14 finished CTA #5 (7256,0), 7 CTAs running
GPGPU-Sim uArch: core: 14, cta: 5 initialized @(7257,0)
GPGPU-Sim uArch: Shader 11 finished CTA #2 (7258,0), 7 CTAs running
GPGPU-Sim uArch: core: 11, cta: 2 initialized @(7259,0)
GPGPU-Sim PTX: 2800000 instructions simulated : ctaid=(2,14,0) tid=(27,0,0)
GPGPU-Sim uArch: Shader 9 finished CTA #0 (7300,0), 7 CTAs running
GPGPU-Sim uArch: core:  9, cta: 0 initialized @(7301,0)
GPGPU-Sim uArch: cycles simulated: 7500  inst.: 2693887 (ipc=359.2) sim_rate=448981 (inst/sec) elapsed = 0:0:00:06 / Fri Jan 16 06:10:10 2015
GPGPU-Sim PTX: 2900000 instructions simulated : ctaid=(2,27,0) tid=(31,0,0)
GPGPU-Sim uArch: Shader 2 finished CTA #2 (7909,0), 7 CTAs running
GPGPU-Sim uArch: core:  2, cta: 2 initialized @(7910,0)
GPGPU-Sim uArch: Shader 8 finished CTA #7 (7928,0), 7 CTAs running
GPGPU-Sim uArch: core:  8, cta: 7 initialized @(7929,0)
GPGPU-Sim uArch: Shader 1 finished CTA #1 (7933,0), 7 CTAs running
GPGPU-Sim uArch: core:  1, cta: 1 initialized @(7934,0)
GPGPU-Sim PTX: 3000000 instructions simulated : ctaid=(2,22,0) tid=(3,0,0)
GPGPU-Sim uArch: Shader 13 finished CTA #5 (8287,0), 7 CTAs running
GPGPU-Sim uArch: core: 13, cta: 5 initialized @(8288,0)
GPGPU-Sim uArch: Shader 12 finished CTA #4 (8302,0), 7 CTAs running
GPGPU-Sim uArch: core: 12, cta: 4 initialized @(8303,0)
GPGPU-Sim uArch: Shader 1 finished CTA #2 (8351,0), 7 CTAs running
GPGPU-Sim uArch: core:  1, cta: 2 initialized @(8352,0)
GPGPU-Sim uArch: Shader 6 finished CTA #6 (8392,0), 7 CTAs running
GPGPU-Sim uArch: core:  6, cta: 6 initialized @(8393,0)
GPGPU-Sim uArch: Shader 10 finished CTA #4 (8405,0), 7 CTAs running
GPGPU-Sim uArch: core: 10, cta: 4 initialized @(8406,0)
GPGPU-Sim uArch: Shader 0 finished CTA #1 (8496,0), 7 CTAs running
GPGPU-Sim uArch: core:  0, cta: 1 initialized @(8497,0)
GPGPU-Sim PTX: 3100000 instructions simulated : ctaid=(1,19,0) tid=(31,0,0)
GPGPU-Sim uArch: Shader 7 finished CTA #7 (8632,0), 7 CTAs running
GPGPU-Sim uArch: core:  7, cta: 7 initialized @(8633,0)
GPGPU-Sim uArch: Shader 8 finished CTA #0 (8666,0), 7 CTAs running
GPGPU-Sim uArch: core:  8, cta: 0 initialized @(8667,0)
GPGPU-Sim uArch: Shader 12 finished CTA #6 (8680,0), 7 CTAs running
GPGPU-Sim uArch: core: 12, cta: 6 initialized @(8681,0)
GPGPU-Sim uArch: Shader 5 finished CTA #4 (8782,0), 7 CTAs running
GPGPU-Sim uArch: core:  5, cta: 4 initialized @(8783,0)
GPGPU-Sim uArch: cycles simulated: 9000  inst.: 2994120 (ipc=332.7) sim_rate=427731 (inst/sec) elapsed = 0:0:00:07 / Fri Jan 16 06:10:11 2015
GPGPU-Sim PTX: 3200000 instructions simulated : ctaid=(7,26,0) tid=(9,0,0)
GPGPU-Sim uArch: Shader 11 finished CTA #7 (9224,0), 7 CTAs running
GPGPU-Sim uArch: core: 11, cta: 7 initialized @(9225,0)
GPGPU-Sim uArch: Shader 11 finished CTA #1 (9623,0), 7 CTAs running
GPGPU-Sim uArch: core: 11, cta: 1 initialized @(9624,0)
GPGPU-Sim PTX: 3300000 instructions simulated : ctaid=(4,18,0) tid=(5,0,0)
GPGPU-Sim uArch: Shader 11 finished CTA #2 (9770,0), 7 CTAs running
GPGPU-Sim uArch: core: 11, cta: 2 initialized @(9771,0)
GPGPU-Sim uArch: Shader 14 finished CTA #7 (9823,0), 7 CTAs running
GPGPU-Sim uArch: core: 14, cta: 7 initialized @(9824,0)
GPGPU-Sim uArch: Shader 7 finished CTA #2 (10109,0), 7 CTAs running
GPGPU-Sim uArch: core:  7, cta: 2 initialized @(10110,0)
GPGPU-Sim uArch: Shader 8 finished CTA #1 (10116,0), 7 CTAs running
GPGPU-Sim uArch: core:  8, cta: 1 initialized @(10117,0)
GPGPU-Sim uArch: Shader 2 finished CTA #7 (10240,0), 7 CTAs running
GPGPU-Sim uArch: core:  2, cta: 7 initialized @(10241,0)
GPGPU-Sim PTX: 3400000 instructions simulated : ctaid=(4,25,0) tid=(7,0,0)
GPGPU-Sim uArch: Shader 10 finished CTA #7 (10382,0), 7 CTAs running
GPGPU-Sim uArch: core: 10, cta: 7 initialized @(10383,0)
GPGPU-Sim uArch: Shader 1 finished CTA #1 (10431,0), 7 CTAs running
GPGPU-Sim uArch: core:  1, cta: 1 initialized @(10432,0)
GPGPU-Sim uArch: cycles simulated: 10500  inst.: 3236793 (ipc=308.3) sim_rate=404599 (inst/sec) elapsed = 0:0:00:08 / Fri Jan 16 06:10:12 2015
GPGPU-Sim uArch: Shader 8 finished CTA #7 (10517,0), 7 CTAs running
GPGPU-Sim uArch: Shader 13 finished CTA #1 (10517,0), 7 CTAs running
GPGPU-Sim uArch: core:  8, cta: 7 initialized @(10518,0)
GPGPU-Sim uArch: core: 13, cta: 1 initialized @(10518,0)
GPGPU-Sim uArch: Shader 0 finished CTA #6 (10620,0), 7 CTAs running
GPGPU-Sim uArch: core:  0, cta: 6 initialized @(10621,0)
GPGPU-Sim uArch: Shader 8 finished CTA #6 (10749,0), 7 CTAs running
GPGPU-Sim uArch: core:  8, cta: 6 initialized @(10750,0)
GPGPU-Sim uArch: Shader 13 finished CTA #5 (10769,0), 7 CTAs running
GPGPU-Sim uArch: core: 13, cta: 5 initialized @(10770,0)
GPGPU-Sim uArch: Shader 9 finished CTA #7 (10824,0), 7 CTAs running
GPGPU-Sim uArch: core:  9, cta: 7 initialized @(10825,0)
GPGPU-Sim PTX: 3500000 instructions simulated : ctaid=(5,29,0) tid=(28,0,0)
GPGPU-Sim uArch: Shader 6 finished CTA #6 (10919,0), 7 CTAs running
GPGPU-Sim uArch: core:  6, cta: 6 initialized @(10920,0)
GPGPU-Sim uArch: Shader 8 finished CTA #0 (11053,0), 7 CTAs running
GPGPU-Sim uArch: core:  8, cta: 0 initialized @(11054,0)
GPGPU-Sim uArch: Shader 12 finished CTA #6 (11092,0), 7 CTAs running
GPGPU-Sim uArch: core: 12, cta: 6 initialized @(11093,0)
GPGPU-Sim uArch: Shader 7 finished CTA #7 (11223,0), 7 CTAs running
GPGPU-Sim uArch: core:  7, cta: 7 initialized @(11224,0)
GPGPU-Sim uArch: Shader 11 finished CTA #5 (11231,0), 7 CTAs running
GPGPU-Sim uArch: core: 11, cta: 5 initialized @(11232,0)
GPGPU-Sim uArch: Shader 0 finished CTA #2 (11289,0), 7 CTAs running
GPGPU-Sim uArch: core:  0, cta: 2 initialized @(11290,0)
GPGPU-Sim PTX: 3600000 instructions simulated : ctaid=(7,30,0) tid=(28,0,0)
GPGPU-Sim uArch: cycles simulated: 12000  inst.: 3466050 (ipc=288.8) sim_rate=385116 (inst/sec) elapsed = 0:0:00:09 / Fri Jan 16 06:10:13 2015
GPGPU-Sim uArch: Shader 12 finished CTA #3 (12075,0), 7 CTAs running
GPGPU-Sim uArch: core: 12, cta: 3 initialized @(12076,0)
GPGPU-Sim PTX: 3700000 instructions simulated : ctaid=(3,26,0) tid=(20,0,0)
GPGPU-Sim uArch: Shader 11 finished CTA #1 (12188,0), 7 CTAs running
GPGPU-Sim uArch: core: 11, cta: 1 initialized @(12189,0)
GPGPU-Sim uArch: Shader 1 finished CTA #7 (12293,0), 7 CTAs running
GPGPU-Sim uArch: core:  1, cta: 7 initialized @(12294,0)
GPGPU-Sim uArch: Shader 10 finished CTA #0 (12338,0), 7 CTAs running
GPGPU-Sim uArch: core: 10, cta: 0 initialized @(12339,0)
GPGPU-Sim uArch: Shader 8 finished CTA #1 (12500,0), 7 CTAs running
GPGPU-Sim uArch: core:  8, cta: 1 initialized @(12501,0)
GPGPU-Sim uArch: Shader 7 finished CTA #2 (12689,0), 7 CTAs running
GPGPU-Sim uArch: core:  7, cta: 2 initialized @(12690,0)
GPGPU-Sim uArch: Shader 2 finished CTA #7 (12715,0), 7 CTAs running
GPGPU-Sim uArch: core:  2, cta: 7 initialized @(12716,0)
GPGPU-Sim uArch: Shader 0 finished CTA #5 (12804,0), 7 CTAs running
GPGPU-Sim uArch: core:  0, cta: 5 initialized @(12805,0)
GPGPU-Sim PTX: 3800000 instructions simulated : ctaid=(4,31,0) tid=(7,0,0)
GPGPU-Sim uArch: Shader 8 finished CTA #7 (12959,0), 7 CTAs running
GPGPU-Sim uArch: core:  8, cta: 7 initialized @(12960,0)
GPGPU-Sim uArch: Shader 9 finished CTA #1 (13061,0), 7 CTAs running
GPGPU-Sim uArch: core:  9, cta: 1 initialized @(13062,0)
GPGPU-Sim uArch: Shader 13 finished CTA #5 (13286,0), 7 CTAs running
GPGPU-Sim uArch: core: 13, cta: 5 initialized @(13287,0)
GPGPU-Sim uArch: Shader 9 finished CTA #7 (13301,0), 7 CTAs running
GPGPU-Sim uArch: core:  9, cta: 7 initialized @(13302,0)
GPGPU-Sim uArch: Shader 8 finished CTA #6 (13323,0), 7 CTAs running
GPGPU-Sim uArch: core:  8, cta: 6 initialized @(13324,0)
GPGPU-Sim uArch: Shader 12 finished CTA #7 (13476,0), 7 CTAs running
GPGPU-Sim uArch: core: 12, cta: 7 initialized @(13477,0)
GPGPU-Sim uArch: Shader 6 finished CTA #0 (13490,0), 7 CTAs running
GPGPU-Sim uArch: core:  6, cta: 0 initialized @(13491,0)
GPGPU-Sim uArch: cycles simulated: 13500  inst.: 3670629 (ipc=271.9) sim_rate=367062 (inst/sec) elapsed = 0:0:00:10 / Fri Jan 16 06:10:14 2015
GPGPU-Sim uArch: Shader 9 finished CTA #2 (13508,0), 7 CTAs running
GPGPU-Sim uArch: core:  9, cta: 2 initialized @(13509,0)
GPGPU-Sim PTX: 3900000 instructions simulated : ctaid=(4,33,0) tid=(26,0,0)
GPGPU-Sim uArch: Shader 12 finished CTA #6 (13578,0), 7 CTAs running
GPGPU-Sim uArch: core: 12, cta: 6 initialized @(13579,0)
GPGPU-Sim uArch: Shader 7 finished CTA #0 (13596,0), 7 CTAs running
GPGPU-Sim uArch: core:  7, cta: 0 initialized @(13597,0)
GPGPU-Sim uArch: Shader 13 finished CTA #7 (13772,0), 7 CTAs running
GPGPU-Sim uArch: core: 13, cta: 7 initialized @(13773,0)
GPGPU-Sim uArch: Shader 7 finished CTA #1 (13808,0), 7 CTAs running
GPGPU-Sim uArch: core:  7, cta: 1 initialized @(13809,0)
GPGPU-Sim uArch: Shader 5 finished CTA #7 (13872,0), 7 CTAs running
GPGPU-Sim uArch: core:  5, cta: 7 initialized @(13873,0)
GPGPU-Sim uArch: Shader 3 finished CTA #7 (13938,0), 7 CTAs running
GPGPU-Sim uArch: core:  3, cta: 7 initialized @(13939,0)
GPGPU-Sim uArch: Shader 0 finished CTA #2 (13974,0), 7 CTAs running
GPGPU-Sim uArch: core:  0, cta: 2 initialized @(13975,0)
GPGPU-Sim PTX: 4000000 instructions simulated : ctaid=(4,31,0) tid=(18,0,0)
GPGPU-Sim uArch: Shader 4 finished CTA #2 (14183,0), 7 CTAs running
GPGPU-Sim uArch: core:  4, cta: 2 initialized @(14184,0)
GPGPU-Sim uArch: Shader 12 finished CTA #3 (14375,0), 7 CTAs running
GPGPU-Sim uArch: core: 12, cta: 3 initialized @(14376,0)
GPGPU-Sim uArch: Shader 5 finished CTA #5 (14419,0), 7 CTAs running
GPGPU-Sim uArch: core:  5, cta: 5 initialized @(14420,0)
GPGPU-Sim uArch: Shader 4 finished CTA #7 (14494,0), 7 CTAs running
GPGPU-Sim uArch: core:  4, cta: 7 initialized @(14495,0)
GPGPU-Sim uArch: Shader 2 finished CTA #6 (14629,0), 7 CTAs running
GPGPU-Sim uArch: core:  2, cta: 6 initialized @(14630,0)
GPGPU-Sim uArch: Shader 8 finished CTA #3 (14645,0), 7 CTAs running
GPGPU-Sim uArch: core:  8, cta: 3 initialized @(14646,0)
GPGPU-Sim uArch: Shader 1 finished CTA #0 (14678,0), 7 CTAs running
GPGPU-Sim uArch: core:  1, cta: 0 initialized @(14679,0)
GPGPU-Sim uArch: Shader 11 finished CTA #1 (14680,0), 7 CTAs running
GPGPU-Sim uArch: core: 11, cta: 1 initialized @(14681,0)
GPGPU-Sim uArch: Shader 3 finished CTA #0 (14736,0), 7 CTAs running
GPGPU-Sim uArch: core:  3, cta: 0 initialized @(14737,0)
GPGPU-Sim uArch: Shader 3 finished CTA #1 (14756,0), 7 CTAs running
GPGPU-Sim uArch: core:  3, cta: 1 initialized @(14757,0)
GPGPU-Sim PTX: 4100000 instructions simulated : ctaid=(5,34,0) tid=(6,0,0)
GPGPU-Sim uArch: Shader 9 finished CTA #3 (14901,0), 7 CTAs running
GPGPU-Sim uArch: core:  9, cta: 3 initialized @(14902,0)
GPGPU-Sim uArch: Shader 8 finished CTA #1 (14915,0), 7 CTAs running
GPGPU-Sim uArch: core:  8, cta: 1 initialized @(14916,0)
GPGPU-Sim uArch: cycles simulated: 15000  inst.: 3904730 (ipc=260.3) sim_rate=354975 (inst/sec) elapsed = 0:0:00:11 / Fri Jan 16 06:10:15 2015
GPGPU-Sim uArch: Shader 2 finished CTA #4 (15045,0), 7 CTAs running
GPGPU-Sim uArch: core:  2, cta: 4 initialized @(15046,0)
GPGPU-Sim uArch: Shader 0 finished CTA #7 (15049,0), 7 CTAs running
GPGPU-Sim uArch: core:  0, cta: 7 initialized @(15050,0)
GPGPU-Sim uArch: Shader 0 finished CTA #3 (15181,0), 7 CTAs running
GPGPU-Sim uArch: core:  0, cta: 3 initialized @(15182,0)
GPGPU-Sim uArch: Shader 6 finished CTA #2 (15222,0), 7 CTAs running
GPGPU-Sim uArch: core:  6, cta: 2 initialized @(15223,0)
GPGPU-Sim uArch: Shader 10 finished CTA #1 (15267,0), 7 CTAs running
GPGPU-Sim uArch: core: 10, cta: 1 initialized @(15268,0)
GPGPU-Sim uArch: Shader 14 finished CTA #0 (15274,0), 7 CTAs running
GPGPU-Sim uArch: core: 14, cta: 0 initialized @(15275,0)
GPGPU-Sim PTX: 4200000 instructions simulated : ctaid=(4,7,0) tid=(4,0,0)
GPGPU-Sim uArch: Shader 1 finished CTA #1 (15312,0), 7 CTAs running
GPGPU-Sim uArch: core:  1, cta: 1 initialized @(15313,0)
GPGPU-Sim uArch: Shader 5 finished CTA #2 (15368,0), 7 CTAs running
GPGPU-Sim uArch: core:  5, cta: 2 initialized @(15369,0)
GPGPU-Sim uArch: Shader 8 finished CTA #7 (15376,0), 7 CTAs running
GPGPU-Sim uArch: core:  8, cta: 7 initialized @(15377,0)
GPGPU-Sim uArch: Shader 9 finished CTA #1 (15412,0), 7 CTAs running
GPGPU-Sim uArch: core:  9, cta: 1 initialized @(15413,0)
GPGPU-Sim uArch: Shader 0 finished CTA #5 (15439,0), 7 CTAs running
GPGPU-Sim uArch: core:  0, cta: 5 initialized @(15440,0)
GPGPU-Sim uArch: Shader 5 finished CTA #4 (15635,0), 7 CTAs running
GPGPU-Sim uArch: core:  5, cta: 4 initialized @(15636,0)
GPGPU-Sim uArch: Shader 4 finished CTA #0 (15639,0), 7 CTAs running
GPGPU-Sim uArch: core:  4, cta: 0 initialized @(15640,0)
GPGPU-Sim uArch: Shader 4 finished CTA #4 (15724,0), 7 CTAs running
GPGPU-Sim uArch: core:  4, cta: 4 initialized @(15725,0)
GPGPU-Sim PTX: 4300000 instructions simulated : ctaid=(3,32,0) tid=(25,0,0)
GPGPU-Sim uArch: Shader 8 finished CTA #6 (15768,0), 7 CTAs running
GPGPU-Sim uArch: core:  8, cta: 6 initialized @(15769,0)
GPGPU-Sim uArch: Shader 8 finished CTA #0 (15998,0), 7 CTAs running
GPGPU-Sim uArch: core:  8, cta: 0 initialized @(15999,0)
GPGPU-Sim uArch: Shader 8 finished CTA #4 (16019,0), 7 CTAs running
GPGPU-Sim uArch: core:  8, cta: 4 initialized @(16020,0)
GPGPU-Sim uArch: Shader 12 finished CTA #6 (16045,0), 7 CTAs running
GPGPU-Sim uArch: core: 12, cta: 6 initialized @(16046,0)
GPGPU-Sim uArch: Shader 1 finished CTA #3 (16075,0), 7 CTAs running
GPGPU-Sim uArch: core:  1, cta: 3 initialized @(16076,0)
GPGPU-Sim uArch: Shader 7 finished CTA #0 (16082,0), 7 CTAs running
GPGPU-Sim uArch: core:  7, cta: 0 initialized @(16083,0)
GPGPU-Sim uArch: Shader 9 finished CTA #2 (16093,0), 7 CTAs running
GPGPU-Sim uArch: core:  9, cta: 2 initialized @(16094,0)
GPGPU-Sim uArch: Shader 4 finished CTA #3 (16118,0), 7 CTAs running
GPGPU-Sim uArch: core:  4, cta: 3 initialized @(16119,0)
GPGPU-Sim uArch: Shader 9 finished CTA #5 (16147,0), 7 CTAs running
GPGPU-Sim uArch: core:  9, cta: 5 initialized @(16148,0)
GPGPU-Sim uArch: Shader 7 finished CTA #5 (16213,0), 7 CTAs running
GPGPU-Sim uArch: core:  7, cta: 5 initialized @(16214,0)
GPGPU-Sim PTX: 4400000 instructions simulated : ctaid=(5,37,0) tid=(25,0,0)
GPGPU-Sim uArch: Shader 13 finished CTA #0 (16234,0), 7 CTAs running
GPGPU-Sim uArch: core: 13, cta: 0 initialized @(16235,0)
GPGPU-Sim uArch: Shader 5 finished CTA #7 (16260,0), 7 CTAs running
GPGPU-Sim uArch: core:  5, cta: 7 initialized @(16261,0)
GPGPU-Sim uArch: Shader 12 finished CTA #1 (16471,0), 7 CTAs running
GPGPU-Sim uArch: core: 12, cta: 1 initialized @(16472,0)
GPGPU-Sim uArch: cycles simulated: 16500  inst.: 4209494 (ipc=255.1) sim_rate=350791 (inst/sec) elapsed = 0:0:00:12 / Fri Jan 16 06:10:16 2015
GPGPU-Sim uArch: Shader 7 finished CTA #4 (16586,0), 7 CTAs running
GPGPU-Sim uArch: core:  7, cta: 4 initialized @(16587,0)
GPGPU-Sim PTX: 4500000 instructions simulated : ctaid=(3,32,0) tid=(16,0,0)
GPGPU-Sim uArch: Shader 14 finished CTA #4 (16773,0), 7 CTAs running
GPGPU-Sim uArch: core: 14, cta: 4 initialized @(16774,0)
GPGPU-Sim uArch: Shader 14 finished CTA #1 (16785,0), 7 CTAs running
GPGPU-Sim uArch: core: 14, cta: 1 initialized @(16786,0)
GPGPU-Sim uArch: Shader 4 finished CTA #2 (16794,0), 7 CTAs running
GPGPU-Sim uArch: core:  4, cta: 2 initialized @(16795,0)
GPGPU-Sim uArch: Shader 12 finished CTA #3 (16823,0), 7 CTAs running
GPGPU-Sim uArch: core: 12, cta: 3 initialized @(16824,0)
GPGPU-Sim uArch: Shader 5 finished CTA #5 (16835,0), 7 CTAs running
GPGPU-Sim uArch: core:  5, cta: 5 initialized @(16836,0)
GPGPU-Sim uArch: Shader 0 finished CTA #4 (16867,0), 7 CTAs running
GPGPU-Sim uArch: core:  0, cta: 4 initialized @(16868,0)
GPGPU-Sim uArch: Shader 14 finished CTA #5 (16955,0), 7 CTAs running
GPGPU-Sim uArch: core: 14, cta: 5 initialized @(16956,0)
GPGPU-Sim uArch: Shader 6 finished CTA #7 (16956,0), 7 CTAs running
GPGPU-Sim uArch: core:  6, cta: 7 initialized @(16957,0)
GPGPU-Sim uArch: Shader 8 finished CTA #3 (16958,0), 7 CTAs running
GPGPU-Sim uArch: core:  8, cta: 3 initialized @(16959,0)
GPGPU-Sim uArch: Shader 6 finished CTA #1 (16963,0), 7 CTAs running
GPGPU-Sim uArch: core:  6, cta: 1 initialized @(16964,0)
GPGPU-Sim uArch: Shader 10 finished CTA #0 (16976,0), 7 CTAs running
GPGPU-Sim uArch: core: 10, cta: 0 initialized @(16977,0)
GPGPU-Sim PTX: 4600000 instructions simulated : ctaid=(3,39,0) tid=(3,0,0)
GPGPU-Sim uArch: Shader 2 finished CTA #5 (17090,0), 7 CTAs running
GPGPU-Sim uArch: core:  2, cta: 5 initialized @(17091,0)
GPGPU-Sim uArch: Shader 6 finished CTA #3 (17108,0), 7 CTAs running
GPGPU-Sim uArch: core:  6, cta: 3 initialized @(17109,0)
GPGPU-Sim uArch: Shader 3 finished CTA #1 (17201,0), 7 CTAs running
GPGPU-Sim uArch: core:  3, cta: 1 initialized @(17202,0)
GPGPU-Sim uArch: Shader 9 finished CTA #3 (17246,0), 7 CTAs running
GPGPU-Sim uArch: core:  9, cta: 3 initialized @(17247,0)
GPGPU-Sim uArch: Shader 3 finished CTA #0 (17268,0), 7 CTAs running
GPGPU-Sim uArch: core:  3, cta: 0 initialized @(17269,0)
GPGPU-Sim uArch: Shader 0 finished CTA #7 (17420,0), 7 CTAs running
GPGPU-Sim uArch: core:  0, cta: 7 initialized @(17421,0)
GPGPU-Sim PTX: 4700000 instructions simulated : ctaid=(4,35,0) tid=(4,0,0)
GPGPU-Sim uArch: Shader 8 finished CTA #2 (17486,0), 7 CTAs running
GPGPU-Sim uArch: core:  8, cta: 2 initialized @(17487,0)
GPGPU-Sim uArch: Shader 14 finished CTA #0 (17651,0), 7 CTAs running
GPGPU-Sim uArch: core: 14, cta: 0 initialized @(17652,0)
GPGPU-Sim uArch: Shader 1 finished CTA #1 (17697,0), 7 CTAs running
GPGPU-Sim uArch: core:  1, cta: 1 initialized @(17698,0)
GPGPU-Sim uArch: Shader 9 finished CTA #1 (17800,0), 7 CTAs running
GPGPU-Sim uArch: core:  9, cta: 1 initialized @(17801,0)
GPGPU-Sim PTX: 4800000 instructions simulated : ctaid=(3,20,0) tid=(4,0,0)
GPGPU-Sim uArch: Shader 9 finished CTA #6 (17847,0), 7 CTAs running
GPGPU-Sim uArch: core:  9, cta: 6 initialized @(17848,0)
GPGPU-Sim uArch: Shader 10 finished CTA #1 (17851,0), 7 CTAs running
GPGPU-Sim uArch: core: 10, cta: 1 initialized @(17852,0)
GPGPU-Sim uArch: Shader 13 finished CTA #2 (17853,0), 7 CTAs running
GPGPU-Sim uArch: core: 13, cta: 2 initialized @(17854,0)
GPGPU-Sim uArch: Shader 11 finished CTA #5 (17855,0), 7 CTAs running
GPGPU-Sim uArch: core: 11, cta: 5 initialized @(17856,0)
GPGPU-Sim uArch: Shader 10 finished CTA #3 (17951,0), 7 CTAs running
GPGPU-Sim uArch: core: 10, cta: 3 initialized @(17952,0)
GPGPU-Sim uArch: cycles simulated: 18000  inst.: 4562418 (ipc=253.5) sim_rate=350955 (inst/sec) elapsed = 0:0:00:13 / Fri Jan 16 06:10:17 2015
GPGPU-Sim uArch: Shader 4 finished CTA #4 (18102,0), 7 CTAs running
GPGPU-Sim uArch: core:  4, cta: 4 initialized @(18103,0)
GPGPU-Sim uArch: Shader 4 finished CTA #0 (18145,0), 7 CTAs running
GPGPU-Sim uArch: core:  4, cta: 0 initialized @(18146,0)
GPGPU-Sim uArch: Shader 8 finished CTA #6 (18153,0), 7 CTAs running
GPGPU-Sim uArch: core:  8, cta: 6 initialized @(18154,0)
GPGPU-Sim PTX: 4900000 instructions simulated : ctaid=(3,38,0) tid=(13,0,0)
GPGPU-Sim uArch: Shader 3 finished CTA #4 (18344,0), 7 CTAs running
GPGPU-Sim uArch: core:  3, cta: 4 initialized @(18345,0)
GPGPU-Sim uArch: Shader 12 finished CTA #4 (18405,0), 7 CTAs running
GPGPU-Sim uArch: core: 12, cta: 4 initialized @(18406,0)
GPGPU-Sim uArch: Shader 7 finished CTA #6 (18411,0), 7 CTAs running
GPGPU-Sim uArch: core:  7, cta: 6 initialized @(18412,0)
GPGPU-Sim uArch: Shader 14 finished CTA #2 (18429,0), 7 CTAs running
GPGPU-Sim uArch: core: 14, cta: 2 initialized @(18430,0)
GPGPU-Sim uArch: Shader 12 finished CTA #6 (18456,0), 7 CTAs running
GPGPU-Sim uArch: core: 12, cta: 6 initialized @(18457,0)
GPGPU-Sim uArch: Shader 8 finished CTA #5 (18475,0), 7 CTAs running
GPGPU-Sim uArch: core:  8, cta: 5 initialized @(18476,0)
GPGPU-Sim uArch: Shader 7 finished CTA #3 (18513,0), 7 CTAs running
GPGPU-Sim uArch: core:  7, cta: 3 initialized @(18514,0)
GPGPU-Sim uArch: Shader 13 finished CTA #3 (18535,0), 7 CTAs running
GPGPU-Sim uArch: core: 13, cta: 3 initialized @(18536,0)
GPGPU-Sim uArch: Shader 4 finished CTA #3 (18581,0), 7 CTAs running
GPGPU-Sim uArch: core:  4, cta: 3 initialized @(18582,0)
GPGPU-Sim uArch: Shader 9 finished CTA #5 (18613,0), 7 CTAs running
GPGPU-Sim uArch: core:  9, cta: 5 initialized @(18614,0)
GPGPU-Sim PTX: 5000000 instructions simulated : ctaid=(7,43,0) tid=(29,0,0)
GPGPU-Sim uArch: Shader 5 finished CTA #7 (18635,0), 7 CTAs running
GPGPU-Sim uArch: core:  5, cta: 7 initialized @(18636,0)
GPGPU-Sim uArch: Shader 12 finished CTA #2 (18663,0), 7 CTAs running
GPGPU-Sim uArch: core: 12, cta: 2 initialized @(18664,0)
GPGPU-Sim uArch: Shader 9 finished CTA #2 (18676,0), 7 CTAs running
GPGPU-Sim uArch: core:  9, cta: 2 initialized @(18677,0)
GPGPU-Sim uArch: Shader 10 finished CTA #6 (18791,0), 7 CTAs running
GPGPU-Sim uArch: core: 10, cta: 6 initialized @(18792,0)
GPGPU-Sim uArch: Shader 6 finished CTA #5 (18928,0), 7 CTAs running
GPGPU-Sim uArch: core:  6, cta: 5 initialized @(18929,0)
GPGPU-Sim PTX: 5100000 instructions simulated : ctaid=(2,40,0) tid=(31,0,0)
GPGPU-Sim uArch: Shader 12 finished CTA #5 (19097,0), 7 CTAs running
GPGPU-Sim uArch: core: 12, cta: 5 initialized @(19098,0)
GPGPU-Sim uArch: Shader 14 finished CTA #1 (19134,0), 7 CTAs running
GPGPU-Sim uArch: core: 14, cta: 1 initialized @(19135,0)
GPGPU-Sim uArch: Shader 14 finished CTA #4 (19170,0), 7 CTAs running
GPGPU-Sim uArch: core: 14, cta: 4 initialized @(19171,0)
GPGPU-Sim uArch: Shader 4 finished CTA #2 (19233,0), 7 CTAs running
GPGPU-Sim uArch: core:  4, cta: 2 initialized @(19234,0)
GPGPU-Sim uArch: Shader 11 finished CTA #0 (19254,0), 7 CTAs running
GPGPU-Sim uArch: core: 11, cta: 0 initialized @(19255,0)
GPGPU-Sim uArch: Shader 0 finished CTA #4 (19269,0), 7 CTAs running
GPGPU-Sim uArch: core:  0, cta: 4 initialized @(19270,0)
GPGPU-Sim uArch: Shader 6 finished CTA #1 (19328,0), 7 CTAs running
GPGPU-Sim uArch: core:  6, cta: 1 initialized @(19329,0)
GPGPU-Sim PTX: 5200000 instructions simulated : ctaid=(6,45,0) tid=(17,0,0)
GPGPU-Sim uArch: cycles simulated: 19500  inst.: 4927407 (ipc=252.7) sim_rate=351957 (inst/sec) elapsed = 0:0:00:14 / Fri Jan 16 06:10:18 2015
GPGPU-Sim uArch: Shader 10 finished CTA #0 (19549,0), 7 CTAs running
GPGPU-Sim uArch: core: 10, cta: 0 initialized @(19550,0)
GPGPU-Sim uArch: Shader 8 finished CTA #3 (19559,0), 7 CTAs running
GPGPU-Sim uArch: core:  8, cta: 3 initialized @(19560,0)
GPGPU-Sim uArch: Shader 4 finished CTA #6 (19605,0), 7 CTAs running
GPGPU-Sim uArch: core:  4, cta: 6 initialized @(19606,0)
GPGPU-Sim uArch: Shader 2 finished CTA #7 (19641,0), 7 CTAs running
GPGPU-Sim uArch: core:  2, cta: 7 initialized @(19642,0)
GPGPU-Sim uArch: Shader 3 finished CTA #1 (19650,0), 7 CTAs running
GPGPU-Sim uArch: core:  3, cta: 1 initialized @(19651,0)
GPGPU-Sim uArch: Shader 2 finished CTA #1 (19666,0), 7 CTAs running
GPGPU-Sim uArch: core:  2, cta: 1 initialized @(19667,0)
GPGPU-Sim PTX: 5300000 instructions simulated : ctaid=(0,35,0) tid=(21,0,0)
GPGPU-Sim uArch: Shader 8 finished CTA #2 (19814,0), 7 CTAs running
GPGPU-Sim uArch: core:  8, cta: 2 initialized @(19815,0)
GPGPU-Sim uArch: Shader 5 finished CTA #3 (20050,0), 7 CTAs running
GPGPU-Sim uArch: core:  5, cta: 3 initialized @(20051,0)
GPGPU-Sim uArch: Shader 14 finished CTA #0 (20098,0), 7 CTAs running
GPGPU-Sim uArch: core: 14, cta: 0 initialized @(20099,0)
GPGPU-Sim uArch: Shader 14 finished CTA #3 (20113,0), 7 CTAs running
GPGPU-Sim uArch: core: 14, cta: 3 initialized @(20114,0)
GPGPU-Sim uArch: Shader 0 finished CTA #7 (20118,0), 7 CTAs running
GPGPU-Sim uArch: core:  0, cta: 7 initialized @(20119,0)
GPGPU-Sim uArch: Shader 14 finished CTA #7 (20159,0), 7 CTAs running
GPGPU-Sim uArch: core: 14, cta: 7 initialized @(20160,0)
GPGPU-Sim uArch: Shader 11 finished CTA #4 (20169,0), 7 CTAs running
GPGPU-Sim uArch: core: 11, cta: 4 initialized @(20170,0)
GPGPU-Sim PTX: 5400000 instructions simulated : ctaid=(4,47,0) tid=(15,0,0)
GPGPU-Sim uArch: Shader 9 finished CTA #6 (20270,0), 7 CTAs running
GPGPU-Sim uArch: core:  9, cta: 6 initialized @(20271,0)
GPGPU-Sim uArch: Shader 0 finished CTA #1 (20302,0), 7 CTAs running
GPGPU-Sim uArch: core:  0, cta: 1 initialized @(20303,0)
GPGPU-Sim uArch: Shader 10 finished CTA #5 (20353,0), 7 CTAs running
GPGPU-Sim uArch: core: 10, cta: 5 initialized @(20354,0)
GPGPU-Sim uArch: Shader 2 finished CTA #3 (20448,0), 7 CTAs running
GPGPU-Sim uArch: core:  2, cta: 3 initialized @(20449,0)
GPGPU-Sim uArch: Shader 10 finished CTA #3 (20450,0), 7 CTAs running
GPGPU-Sim uArch: core: 10, cta: 3 initialized @(20451,0)
GPGPU-Sim uArch: Shader 11 finished CTA #5 (20486,0), 7 CTAs running
GPGPU-Sim uArch: core: 11, cta: 5 initialized @(20487,0)
GPGPU-Sim uArch: Shader 4 finished CTA #4 (20496,0), 7 CTAs running
GPGPU-Sim uArch: core:  4, cta: 4 initialized @(20497,0)
GPGPU-Sim PTX: 5500000 instructions simulated : ctaid=(0,48,0) tid=(14,0,0)
GPGPU-Sim uArch: Shader 11 finished CTA #6 (20669,0), 7 CTAs running
GPGPU-Sim uArch: core: 11, cta: 6 initialized @(20670,0)
GPGPU-Sim uArch: Shader 8 finished CTA #4 (20716,0), 7 CTAs running
GPGPU-Sim uArch: core:  8, cta: 4 initialized @(20717,0)
GPGPU-Sim uArch: Shader 2 finished CTA #6 (20727,0), 7 CTAs running
GPGPU-Sim uArch: core:  2, cta: 6 initialized @(20728,0)
GPGPU-Sim uArch: Shader 5 finished CTA #5 (20755,0), 7 CTAs running
GPGPU-Sim uArch: core:  5, cta: 5 initialized @(20756,0)
GPGPU-Sim uArch: Shader 6 finished CTA #6 (20807,0), 7 CTAs running
GPGPU-Sim uArch: core:  6, cta: 6 initialized @(20808,0)
GPGPU-Sim uArch: Shader 3 finished CTA #4 (20901,0), 7 CTAs running
GPGPU-Sim uArch: core:  3, cta: 4 initialized @(20902,0)
GPGPU-Sim uArch: Shader 4 finished CTA #1 (20928,0), 7 CTAs running
GPGPU-Sim uArch: core:  4, cta: 1 initialized @(20929,0)
GPGPU-Sim PTX: 5600000 instructions simulated : ctaid=(4,48,0) tid=(23,0,0)
GPGPU-Sim uArch: Shader 12 finished CTA #6 (20946,0), 7 CTAs running
GPGPU-Sim uArch: core: 12, cta: 6 initialized @(20947,0)
GPGPU-Sim uArch: Shader 10 finished CTA #2 (20991,0), 7 CTAs running
GPGPU-Sim uArch: core: 10, cta: 2 initialized @(20992,0)
GPGPU-Sim uArch: cycles simulated: 21000  inst.: 5291134 (ipc=252.0) sim_rate=352742 (inst/sec) elapsed = 0:0:00:15 / Fri Jan 16 06:10:19 2015
GPGPU-Sim uArch: Shader 14 finished CTA #2 (21033,0), 7 CTAs running
GPGPU-Sim uArch: core: 14, cta: 2 initialized @(21034,0)
GPGPU-Sim uArch: Shader 6 finished CTA #4 (21066,0), 7 CTAs running
GPGPU-Sim uArch: Shader 8 finished CTA #5 (21066,0), 7 CTAs running
GPGPU-Sim uArch: core:  6, cta: 4 initialized @(21067,0)
GPGPU-Sim uArch: core:  8, cta: 5 initialized @(21067,0)
GPGPU-Sim uArch: Shader 4 finished CTA #3 (21170,0), 7 CTAs running
GPGPU-Sim uArch: core:  4, cta: 3 initialized @(21171,0)
GPGPU-Sim uArch: Shader 9 finished CTA #2 (21190,0), 7 CTAs running
GPGPU-Sim uArch: core:  9, cta: 2 initialized @(21191,0)
GPGPU-Sim uArch: Shader 10 finished CTA #6 (21286,0), 7 CTAs running
GPGPU-Sim uArch: core: 10, cta: 6 initialized @(21287,0)
GPGPU-Sim PTX: 5700000 instructions simulated : ctaid=(1,46,0) tid=(27,0,0)
GPGPU-Sim uArch: Shader 0 finished CTA #5 (21325,0), 7 CTAs running
GPGPU-Sim uArch: core:  0, cta: 5 initialized @(21326,0)
GPGPU-Sim uArch: Shader 12 finished CTA #2 (21329,0), 7 CTAs running
GPGPU-Sim uArch: core: 12, cta: 2 initialized @(21330,0)
GPGPU-Sim uArch: Shader 1 finished CTA #5 (21413,0), 7 CTAs running
GPGPU-Sim uArch: core:  1, cta: 5 initialized @(21414,0)
GPGPU-Sim uArch: Shader 14 finished CTA #1 (21609,0), 7 CTAs running
GPGPU-Sim uArch: core: 14, cta: 1 initialized @(21610,0)
GPGPU-Sim uArch: Shader 1 finished CTA #7 (21681,0), 7 CTAs running
GPGPU-Sim uArch: core:  1, cta: 7 initialized @(21682,0)
GPGPU-Sim PTX: 5800000 instructions simulated : ctaid=(4,49,0) tid=(1,0,0)
GPGPU-Sim uArch: Shader 10 finished CTA #4 (21749,0), 7 CTAs running
GPGPU-Sim uArch: core: 10, cta: 4 initialized @(21750,0)
GPGPU-Sim uArch: Shader 3 finished CTA #2 (21800,0), 7 CTAs running
GPGPU-Sim uArch: core:  3, cta: 2 initialized @(21801,0)
GPGPU-Sim uArch: Shader 0 finished CTA #4 (21813,0), 7 CTAs running
GPGPU-Sim uArch: core:  0, cta: 4 initialized @(21814,0)
GPGPU-Sim uArch: Shader 11 finished CTA #0 (21891,0), 7 CTAs running
GPGPU-Sim uArch: core: 11, cta: 0 initialized @(21892,0)
GPGPU-Sim uArch: Shader 5 finished CTA #0 (22024,0), 7 CTAs running
GPGPU-Sim uArch: core:  5, cta: 0 initialized @(22025,0)
GPGPU-Sim uArch: Shader 6 finished CTA #1 (22025,0), 7 CTAs running
GPGPU-Sim uArch: core:  6, cta: 1 initialized @(22026,0)
GPGPU-Sim uArch: Shader 1 finished CTA #6 (22049,0), 7 CTAs running
GPGPU-Sim uArch: core:  1, cta: 6 initialized @(22050,0)
GPGPU-Sim PTX: 5900000 instructions simulated : ctaid=(0,44,0) tid=(11,0,0)
GPGPU-Sim uArch: Shader 4 finished CTA #6 (22073,0), 7 CTAs running
GPGPU-Sim uArch: core:  4, cta: 6 initialized @(22074,0)
GPGPU-Sim uArch: Shader 9 finished CTA #0 (22095,0), 7 CTAs running
GPGPU-Sim uArch: core:  9, cta: 0 initialized @(22096,0)
GPGPU-Sim uArch: Shader 8 finished CTA #2 (22263,0), 7 CTAs running
GPGPU-Sim uArch: core:  8, cta: 2 initialized @(22264,0)
GPGPU-Sim uArch: Shader 2 finished CTA #1 (22364,0), 7 CTAs running
GPGPU-Sim uArch: core:  2, cta: 1 initialized @(22365,0)
GPGPU-Sim PTX: 6000000 instructions simulated : ctaid=(2,49,0) tid=(20,0,0)
GPGPU-Sim uArch: cycles simulated: 22500  inst.: 5670543 (ipc=252.0) sim_rate=354408 (inst/sec) elapsed = 0:0:00:16 / Fri Jan 16 06:10:20 2015
GPGPU-Sim uArch: Shader 0 finished CTA #7 (22554,0), 7 CTAs running
GPGPU-Sim uArch: core:  0, cta: 7 initialized @(22555,0)
GPGPU-Sim uArch: Shader 0 finished CTA #6 (22757,0), 7 CTAs running
GPGPU-Sim uArch: core:  0, cta: 6 initialized @(22758,0)
GPGPU-Sim uArch: Shader 5 finished CTA #3 (22767,0), 7 CTAs running
GPGPU-Sim uArch: core:  5, cta: 3 initialized @(22768,0)
GPGPU-Sim uArch: Shader 0 finished CTA #1 (22791,0), 7 CTAs running
GPGPU-Sim uArch: core:  0, cta: 1 initialized @(22792,0)
GPGPU-Sim PTX: 6100000 instructions simulated : ctaid=(5,50,0) tid=(16,0,0)
GPGPU-Sim uArch: Shader 6 finished CTA #0 (22840,0), 7 CTAs running
GPGPU-Sim uArch: core:  6, cta: 0 initialized @(22841,0)
GPGPU-Sim uArch: Shader 9 finished CTA #6 (22841,0), 7 CTAs running
GPGPU-Sim uArch: core:  9, cta: 6 initialized @(22842,0)
GPGPU-Sim uArch: Shader 1 finished CTA #3 (22976,0), 7 CTAs running
GPGPU-Sim uArch: core:  1, cta: 3 initialized @(22977,0)
GPGPU-Sim uArch: Shader 10 finished CTA #5 (23022,0), 7 CTAs running
GPGPU-Sim uArch: core: 10, cta: 5 initialized @(23023,0)
GPGPU-Sim uArch: Shader 11 finished CTA #5 (23059,0), 7 CTAs running
GPGPU-Sim uArch: core: 11, cta: 5 initialized @(23060,0)
GPGPU-Sim uArch: Shader 11 finished CTA #3 (23074,0), 7 CTAs running
GPGPU-Sim uArch: core: 11, cta: 3 initialized @(23075,0)
GPGPU-Sim PTX: 6200000 instructions simulated : ctaid=(1,43,0) tid=(4,0,0)
GPGPU-Sim uArch: Shader 2 finished CTA #6 (23294,0), 7 CTAs running
GPGPU-Sim uArch: core:  2, cta: 6 initialized @(23295,0)
GPGPU-Sim uArch: Shader 8 finished CTA #4 (23327,0), 7 CTAs running
GPGPU-Sim uArch: core:  8, cta: 4 initialized @(23328,0)
GPGPU-Sim uArch: Shader 4 finished CTA #1 (23383,0), 7 CTAs running
GPGPU-Sim uArch: core:  4, cta: 1 initialized @(23384,0)
GPGPU-Sim uArch: Shader 8 finished CTA #7 (23453,0), 7 CTAs running
GPGPU-Sim uArch: core:  8, cta: 7 initialized @(23454,0)
GPGPU-Sim uArch: cycles simulated: 23500  inst.: 5896850 (ipc=250.9) sim_rate=346873 (inst/sec) elapsed = 0:0:00:17 / Fri Jan 16 06:10:21 2015
GPGPU-Sim uArch: Shader 6 finished CTA #4 (23567,0), 7 CTAs running
GPGPU-Sim uArch: core:  6, cta: 4 initialized @(23568,0)
GPGPU-Sim uArch: Shader 5 finished CTA #5 (23604,0), 7 CTAs running
GPGPU-Sim uArch: core:  5, cta: 5 initialized @(23605,0)
GPGPU-Sim uArch: Shader 13 finished CTA #0 (23644,0), 7 CTAs running
GPGPU-Sim uArch: core: 13, cta: 0 initialized @(23645,0)
GPGPU-Sim uArch: Shader 3 finished CTA #3 (23660,0), 7 CTAs running
GPGPU-Sim uArch: core:  3, cta: 3 initialized @(23661,0)
GPGPU-Sim PTX: 6300000 instructions simulated : ctaid=(5,53,0) tid=(9,0,0)
GPGPU-Sim uArch: Shader 3 finished CTA #5 (23740,0), 7 CTAs running
GPGPU-Sim uArch: core:  3, cta: 5 initialized @(23741,0)
GPGPU-Sim uArch: Shader 10 finished CTA #6 (23759,0), 7 CTAs running
GPGPU-Sim uArch: core: 10, cta: 6 initialized @(23760,0)
GPGPU-Sim uArch: Shader 14 finished CTA #2 (23815,0), 7 CTAs running
GPGPU-Sim uArch: core: 14, cta: 2 initialized @(23816,0)
GPGPU-Sim uArch: Shader 1 finished CTA #0 (23925,0), 7 CTAs running
GPGPU-Sim uArch: core:  1, cta: 0 initialized @(23926,0)
GPGPU-Sim uArch: Shader 14 finished CTA #5 (23937,0), 7 CTAs running
GPGPU-Sim uArch: core: 14, cta: 5 initialized @(23938,0)
GPGPU-Sim uArch: Shader 8 finished CTA #5 (23993,0), 7 CTAs running
GPGPU-Sim uArch: core:  8, cta: 5 initialized @(23994,0)
GPGPU-Sim PTX: 6400000 instructions simulated : ctaid=(4,48,0) tid=(2,0,0)
GPGPU-Sim uArch: Shader 1 finished CTA #5 (24125,0), 7 CTAs running
GPGPU-Sim uArch: core:  1, cta: 5 initialized @(24126,0)
GPGPU-Sim uArch: Shader 14 finished CTA #1 (24169,0), 7 CTAs running
GPGPU-Sim uArch: core: 14, cta: 1 initialized @(24170,0)
GPGPU-Sim uArch: Shader 5 finished CTA #6 (24192,0), 7 CTAs running
GPGPU-Sim uArch: core:  5, cta: 6 initialized @(24193,0)
GPGPU-Sim uArch: Shader 0 finished CTA #4 (24251,0), 7 CTAs running
GPGPU-Sim uArch: core:  0, cta: 4 initialized @(24252,0)
GPGPU-Sim uArch: Shader 3 finished CTA #6 (24255,0), 7 CTAs running
GPGPU-Sim uArch: core:  3, cta: 6 initialized @(24256,0)
GPGPU-Sim uArch: Shader 5 finished CTA #4 (24256,0), 7 CTAs running
GPGPU-Sim uArch: core:  5, cta: 4 initialized @(24257,0)
GPGPU-Sim uArch: Shader 3 finished CTA #7 (24267,0), 7 CTAs running
GPGPU-Sim uArch: core:  3, cta: 7 initialized @(24268,0)
GPGPU-Sim uArch: Shader 12 finished CTA #0 (24341,0), 7 CTAs running
GPGPU-Sim uArch: core: 12, cta: 0 initialized @(24342,0)
GPGPU-Sim uArch: Shader 7 finished CTA #0 (24395,0), 7 CTAs running
GPGPU-Sim uArch: core:  7, cta: 0 initialized @(24396,0)
GPGPU-Sim PTX: 6500000 instructions simulated : ctaid=(5,55,0) tid=(20,0,0)
GPGPU-Sim uArch: Shader 1 finished CTA #6 (24590,0), 7 CTAs running
GPGPU-Sim uArch: core:  1, cta: 6 initialized @(24591,0)
GPGPU-Sim uArch: Shader 1 finished CTA #7 (24592,0), 7 CTAs running
GPGPU-Sim uArch: core:  1, cta: 7 initialized @(24593,0)
GPGPU-Sim uArch: Shader 7 finished CTA #7 (24629,0), 7 CTAs running
GPGPU-Sim uArch: core:  7, cta: 7 initialized @(24630,0)
GPGPU-Sim uArch: Shader 12 finished CTA #4 (24705,0), 7 CTAs running
GPGPU-Sim uArch: core: 12, cta: 4 initialized @(24706,0)
GPGPU-Sim uArch: Shader 6 finished CTA #1 (24792,0), 7 CTAs running
GPGPU-Sim uArch: core:  6, cta: 1 initialized @(24793,0)
GPGPU-Sim uArch: Shader 10 finished CTA #1 (24861,0), 7 CTAs running
GPGPU-Sim uArch: core: 10, cta: 1 initialized @(24862,0)
GPGPU-Sim uArch: Shader 1 finished CTA #4 (24867,0), 7 CTAs running
GPGPU-Sim uArch: core:  1, cta: 4 initialized @(24868,0)
GPGPU-Sim uArch: Shader 9 finished CTA #4 (24869,0), 7 CTAs running
GPGPU-Sim uArch: core:  9, cta: 4 initialized @(24870,0)
GPGPU-Sim uArch: Shader 6 finished CTA #7 (24913,0), 7 CTAs running
GPGPU-Sim uArch: core:  6, cta: 7 initialized @(24914,0)
GPGPU-Sim PTX: 6600000 instructions simulated : ctaid=(0,57,0) tid=(10,0,0)
GPGPU-Sim uArch: Shader 11 finished CTA #7 (24940,0), 7 CTAs running
GPGPU-Sim uArch: core: 11, cta: 7 initialized @(24941,0)
GPGPU-Sim uArch: Shader 5 finished CTA #1 (24948,0), 7 CTAs running
GPGPU-Sim uArch: core:  5, cta: 1 initialized @(24949,0)
GPGPU-Sim uArch: Shader 2 finished CTA #1 (24956,0), 7 CTAs running
GPGPU-Sim uArch: core:  2, cta: 1 initialized @(24957,0)
GPGPU-Sim uArch: cycles simulated: 25000  inst.: 6235348 (ipc=249.4) sim_rate=346408 (inst/sec) elapsed = 0:0:00:18 / Fri Jan 16 06:10:22 2015
GPGPU-Sim uArch: Shader 2 finished CTA #2 (25034,0), 7 CTAs running
GPGPU-Sim uArch: core:  2, cta: 2 initialized @(25035,0)
GPGPU-Sim uArch: Shader 5 finished CTA #7 (25053,0), 7 CTAs running
GPGPU-Sim uArch: core:  5, cta: 7 initialized @(25054,0)
GPGPU-Sim uArch: Shader 7 finished CTA #1 (25112,0), 7 CTAs running
GPGPU-Sim uArch: core:  7, cta: 1 initialized @(25113,0)
GPGPU-Sim PTX: 6700000 instructions simulated : ctaid=(3,54,0) tid=(24,0,0)
GPGPU-Sim uArch: Shader 0 finished CTA #1 (25328,0), 7 CTAs running
GPGPU-Sim uArch: core:  0, cta: 1 initialized @(25329,0)
GPGPU-Sim uArch: Shader 9 finished CTA #3 (25381,0), 7 CTAs running
GPGPU-Sim uArch: core:  9, cta: 3 initialized @(25382,0)
GPGPU-Sim uArch: Shader 2 finished CTA #0 (25425,0), 7 CTAs running
GPGPU-Sim uArch: core:  2, cta: 0 initialized @(25426,0)
GPGPU-Sim uArch: Shader 5 finished CTA #3 (25529,0), 7 CTAs running
GPGPU-Sim uArch: core:  5, cta: 3 initialized @(25530,0)
GPGPU-Sim uArch: Shader 10 finished CTA #5 (25556,0), 7 CTAs running
GPGPU-Sim uArch: core: 10, cta: 5 initialized @(25557,0)
GPGPU-Sim uArch: Shader 13 finished CTA #6 (25642,0), 7 CTAs running
GPGPU-Sim uArch: core: 13, cta: 6 initialized @(25643,0)
GPGPU-Sim uArch: Shader 9 finished CTA #5 (25649,0), 7 CTAs running
GPGPU-Sim uArch: core:  9, cta: 5 initialized @(25650,0)
GPGPU-Sim PTX: 6800000 instructions simulated : ctaid=(1,59,0) tid=(11,0,0)
GPGPU-Sim uArch: Shader 11 finished CTA #4 (25728,0), 7 CTAs running
GPGPU-Sim uArch: core: 11, cta: 4 initialized @(25729,0)
GPGPU-Sim uArch: Shader 13 finished CTA #5 (25775,0), 7 CTAs running
GPGPU-Sim uArch: core: 13, cta: 5 initialized @(25776,0)
GPGPU-Sim uArch: Shader 8 finished CTA #4 (25863,0), 7 CTAs running
GPGPU-Sim uArch: core:  8, cta: 4 initialized @(25864,0)
GPGPU-Sim uArch: Shader 13 finished CTA #4 (25974,0), 7 CTAs running
GPGPU-Sim uArch: core: 13, cta: 4 initialized @(25975,0)
GPGPU-Sim uArch: Shader 9 finished CTA #2 (26014,0), 7 CTAs running
GPGPU-Sim uArch: core:  9, cta: 2 initialized @(26015,0)
GPGPU-Sim PTX: 6900000 instructions simulated : ctaid=(0,53,0) tid=(5,0,0)
GPGPU-Sim uArch: Shader 5 finished CTA #5 (26076,0), 7 CTAs running
GPGPU-Sim uArch: core:  5, cta: 5 initialized @(26077,0)
GPGPU-Sim uArch: Shader 2 finished CTA #6 (26094,0), 7 CTAs running
GPGPU-Sim uArch: core:  2, cta: 6 initialized @(26095,0)
GPGPU-Sim uArch: Shader 8 finished CTA #3 (26188,0), 7 CTAs running
GPGPU-Sim uArch: core:  8, cta: 3 initialized @(26189,0)
GPGPU-Sim uArch: Shader 12 finished CTA #5 (26255,0), 7 CTAs running
GPGPU-Sim uArch: core: 12, cta: 5 initialized @(26256,0)
[...]
gpgpu_stall_shd_mem[t_mem][mshr_rc] = 0
gpgpu_stall_shd_mem[t_mem][icnt_rc] = 0
gpgpu_stall_shd_mem[t_mem][data_port_stall] = 0
gpgpu_stall_shd_mem[s_mem][bk_conf] = 0
gpgpu_stall_shd_mem[gl_mem][bk_conf] = 0
gpgpu_stall_shd_mem[gl_mem][coal_stall] = 0
gpgpu_stall_shd_mem[gl_mem][data_port_stall] = 0
gpgpu_stall_shd_mem[g_mem_ld][mshr_rc] = 0
gpgpu_stall_shd_mem[g_mem_ld][icnt_rc] = 0
gpgpu_stall_shd_mem[g_mem_ld][wb_icnt_rc] = 0
gpgpu_stall_shd_mem[g_mem_ld][wb_rsrv_fail] = 0
gpgpu_stall_shd_mem[g_mem_st][mshr_rc] = 0
gpgpu_stall_shd_mem[g_mem_st][icnt_rc] = 0
gpgpu_stall_shd_mem[g_mem_st][wb_icnt_rc] = 0
gpgpu_stall_shd_mem[g_mem_st][wb_rsrv_fail] = 0
gpgpu_stall_shd_mem[l_mem_ld][mshr_rc] = 0
gpgpu_stall_shd_mem[l_mem_ld][icnt_rc] = 0
gpgpu_stall_shd_mem[l_mem_ld][wb_icnt_rc] = 0
gpgpu_stall_shd_mem[l_mem_ld][wb_rsrv_fail] = 0
gpgpu_stall_shd_mem[l_mem_st][mshr_rc] = 0
gpgpu_stall_shd_mem[l_mem_st][icnt_rc] = 0
gpgpu_stall_shd_mem[l_mem_ld][wb_icnt_rc] = 0
gpgpu_stall_shd_mem[l_mem_ld][wb_rsrv_fail] = 0
gpu_reg_bank_conflict_stalls = 0
Warp Occupancy Distribution:
Stall:14299	W0_Idle:115752	W0_Scoreboard:2316001	W1:931606	W2:462826	W3:291726	W4:198174	W5:155342	W6:126384	W7:100656	W8:90064	W9:75408	W10:71312	W11:64768	W12:59856	W13:47008	W14:39632	W15:38016	W16:34624	W17:32736	W18:29936	W19:34912	W20:26224	W21:26800	W22:27920	W23:27312	W24:27328	W25:27616	W26:24672	W27:22160	W28:23824	W29:17904	W30:16752	W31:18592	W32:1101264
traffic_breakdown_coretomem[CONST_ACC_R] = 120 {8:15,}
traffic_breakdown_coretomem[GLOBAL_ACC_W] = 81920 {40:2048,}
traffic_breakdown_coretomem[INST_ACC_R] = 480 {8:60,}
traffic_breakdown_memtocore[CONST_ACC_R] = 1080 {72:15,}
traffic_breakdown_memtocore[GLOBAL_ACC_W] = 16384 {8:2048,}
traffic_breakdown_memtocore[INST_ACC_R] = 8160 {136:60,}
maxmrqlatency = 14 
maxdqlatency = 0 
maxmflatency = 278 
averagemflatency = 169 
max_icnt2mem_latency = 36 
max_icnt2sh_latency = 229931 
mrq_lat_table:1031 	1 	26 	4 	0 	0 	0 	0 	0 	0 	0 	0 	0 	0 	0 	0 	0 	0 	0 	0 	0 	0 	0 	0 	0 	0 	0 	0 	0 	0 	0 	0 	
dq_lat_table:0 	0 	0 	0 	0 	0 	0 	0 	0 	0 	0 	0 	0 	0 	0 	0 	0 	0 	0 	0 	0 	0 	0 	0 	0 	0 	0 	0 	0 	0 	0 	0 	
mf_lat_table:0 	0 	0 	0 	0 	0 	0 	2046 	17 	0 	0 	0 	0 	0 	0 	0 	0 	0 	0 	0 	0 	0 	0 	0 	0 	0 	0 	0 	0 	0 	0 	0 	
icnt2mem_lat_table:0 	0 	0 	2112 	8 	3 	0 	0 	0 	0 	0 	0 	0 	0 	0 	0 	0 	0 	0 	0 	0 	0 	0 	0 	
icnt2sh_lat_table:0 	0 	0 	2 	13 	0 	0 	0 	0 	0 	0 	67 	36 	92 	258 	273 	555 	767 	0 	0 	0 	0 	0 	0 	
mf_lat_pw_table:0 	0 	0 	0 	0 	0 	0 	443 	1 	0 	0 	0 	0 	0 	0 	0 	0 	0 	0 	0 	0 	0 	0 	0 	0 	0 	0 	0 	0 	0 	0 	0 	
maximum concurrent accesses to same row:
dram[0]:         1         0         0         0         0         0         0         0         0         0         0         0         0         0         0         0 
dram[1]:         0         0         0         0         0         0         0         0         0         0         0         0         0         0         0         0 
dram[2]:         0         0         0         0         0         0         0         0         0         0         0         0         0         0         0         0 
dram[3]:         0         0         0         0         0         0         0         0         0         0         0         0         0         0         0         0 
dram[4]:         0         0         0         0         0         0         0         0         0         0         0         0         0         0         0         0 
dram[5]:         0         0         0         0         0         0         0         0         0         0         0         0         0         0         0         0 
maximum service time to same row:
dram[0]:       337         0         0         0      2322      2365     31363     34529         0         0         0         0         0         0         0         0 
dram[1]:      1260         0         0         0      2344      2409     31871     35324         0         0         0         0         0         0         0         0 
dram[2]:         0         0         0         0      2331      2316     32418     35747         0         0         0         0         0         0         0         0 
dram[3]:         0         0         0         0      2353      2313     32863     36254         0         0         0         0         0         0         0         0 
dram[4]:         0         0         0         0      2357      2338     33378     37079         0         0         0         0         0         0         0         0 
dram[5]:         0         0         0         0      2372      2341     33829     38069         0         0         0         0         0         0         0         0 
average row accesses per activate:
dram[0]:  1.000000      -nan      -nan      -nan 22.000000 24.000000 64.000000 64.000000      -nan      -nan      -nan      -nan      -nan      -nan      -nan      -nan 
dram[1]:  2.000000      -nan      -nan      -nan 21.000000 22.000000 64.000000 64.000000      -nan      -nan      -nan      -nan      -nan      -nan      -nan      -nan 
dram[2]:      -nan      -nan      -nan      -nan 23.000000 27.000000 65.000000 64.000000      -nan      -nan      -nan      -nan      -nan      -nan      -nan      -nan 
dram[3]:      -nan      -nan      -nan      -nan 23.000000 27.000000 64.000000 64.000000      -nan      -nan      -nan      -nan      -nan      -nan      -nan      -nan 
dram[4]:      -nan      -nan      -nan      -nan 22.000000 28.000000 64.000000 64.000000      -nan      -nan      -nan      -nan      -nan      -nan      -nan      -nan 
dram[5]:      -nan      -nan      -nan      -nan 22.000000 26.000000 65.000000 64.000000      -nan      -nan      -nan      -nan      -nan      -nan      -nan      -nan 
average row locality = 1062/28 = 37.928570
number of total memory accesses made:
dram[0]:         0         0         0         0         0         0         0         0         0         0         0         0         0         0         0         0 
dram[1]:         0         0         0         0         0         0         0         0         0         0         0         0         0         0         0         0 
dram[2]:         0         0         0         0         0         0         0         0         0         0         0         0         0         0         0         0 
dram[3]:         0         0         0         0         0         0         0         0         0         0         0         0         0         0         0         0 
dram[4]:         0         0         0         0         0         0         0         0         0         0         0         0         0         0         0         0 
dram[5]:         0         0         0         0         0         0         0         0         0         0         0         0         0         0         0         0 
total accesses: 0
min_bank_accesses = 0!
min_chip_accesses = 0!
number of total read accesses:
dram[0]:         3         0         0         0        10        10        32        32         0         0         0         0         0         0         0         0 
dram[1]:         2         0         0         0        10        10        32        32         0         0         0         0         0         0         0         0 
dram[2]:         0         0         0         0        10        12        32        32         0         0         0         0         0         0         0         0 
dram[3]:         0         0         0         0        10        12        32        32         0         0         0         0         0         0         0         0 
dram[4]:         0         0         0         0        10        12        32        32         0         0         0         0         0         0         0         0 
dram[5]:         0         0         0         0        10        12        32        32         0         0         0         0         0         0         0         0 
total reads: 517
min_bank_accesses = 0!
chip skew: 87/86 = 1.01
number of total write accesses:
dram[0]:         0         0         0         0        12        14        32        32         0         0         0         0         0         0         0         0 
dram[1]:         0         0         0         0        11        12        32        32         0         0         0         0         0         0         0         0 
dram[2]:         0         0         0         0        13        15        33        32         0         0         0         0         0         0         0         0 
dram[3]:         0         0         0         0        13        15        32        32         0         0         0         0         0         0         0         0 
dram[4]:         0         0         0         0        12        16        32        32         0         0         0         0         0         0         0         0 
dram[5]:         0         0         0         0        12        14        33        32         0         0         0         0         0         0         0         0 
total reads: 545
min_bank_accesses = 0!
chip skew: 93/87 = 1.07
average mf latency per bank:
dram[0]:       1300    none      none      none         313       295       333       333    none      none      none      none      none      none      none      none  
dram[1]:          0    none      none      none         322       313       333       333    none      none      none      none      none      none      none      none  
dram[2]:     none      none      none      none         304       308       329       333    none      none      none      none      none      none      none      none  
dram[3]:     none      none      none      none         303       308       333       333    none      none      none      none      none      none      none      none  
dram[4]:     none      none      none      none         314       302       333       333    none      none      none      none      none      none      none      none  
dram[5]:     none      none      none      none         312       316       329       333    none      none      none      none      none      none      none      none  
maximum mf latency per bank:
dram[0]:        278         0         0         0       260       252       251       251         0         0         0         0         0         0         0         0
dram[1]:          0         0         0         0       252       252       252       252         0         0         0         0         0         0         0         0
dram[2]:          0         0         0         0       256       255       252       252         0         0         0         0         0         0         0         0
dram[3]:          0         0         0         0       252       258       252       251         0         0         0         0         0         0         0         0
dram[4]:          0         0         0         0       264       264       252       251         0         0         0         0         0         0         0         0
dram[5]:          0         0         0         0       252       252       251       253         0         0         0         0         0         0         0         0
Memory Partition 0: 
Cache L2_bank_000:
MSHR contents

Cache L2_bank_001:
MSHR contents

In Dram Latency Queue (total = 0): 
DRAM[0]: 16 bks, busW=4 BL=8 CL=12, tRRD=2 tCCD=6, tRCD=12 tRAS=28 tRP=12 tRC=40
n_cmd=303509 n_nop=303236 n_act=7 n_pre=2 n_req=177 n_rd=174 n_write=90 bw_util=0.00174
n_activity=2450 dram_eff=0.2155
bk0: 6a 303437i bk1: 0a 303507i bk2: 0a 303511i bk3: 0a 303511i bk4: 20a 303341i bk5: 20a 303352i bk6: 64a 303031i bk7: 64a 303029i bk8: 0a 303507i bk9: 0a 303507i bk10: 0a 303507i bk11: 0a 303508i bk12: 0a 303509i bk13: 0a 303509i bk14: 0a 303509i bk15: 0a 303509i 
dram_util_bins: 0 0 0 0 0 0 0 0 0 0
dram_eff_bins: 0 0 0 0 0 0 0 0 0 0
mrqq: max=1 avg=0.000108728
Memory Partition 1: 
Cache L2_bank_002:
MSHR contents

Cache L2_bank_003:
MSHR contents

In Dram Latency Queue (total = 0): 
DRAM[1]: 16 bks, busW=4 BL=8 CL=12, tRRD=2 tCCD=6, tRCD=12 tRAS=28 tRP=12 tRC=40
n_cmd=303509 n_nop=303245 n_act=5 n_pre=0 n_req=173 n_rd=172 n_write=87 bw_util=0.001707
n_activity=2320 dram_eff=0.2233
bk0: 4a 303490i bk1: 0a 303510i bk2: 0a 303510i bk3: 0a 303511i bk4: 20a 303350i bk5: 20a 303343i bk6: 64a 303032i bk7: 64a 303032i bk8: 0a 303507i bk9: 0a 303507i bk10: 0a 303507i bk11: 0a 303508i bk12: 0a 303508i bk13: 0a 303508i bk14: 0a 303508i bk15: 0a 303510i 
dram_util_bins: 0 0 0 0 0 0 0 0 0 0
dram_eff_bins: 0 0 0 0 0 0 0 0 0 0
mrqq: max=1 avg=8.89595e-05
Memory Partition 2: 
Cache L2_bank_004:
MSHR contents

Cache L2_bank_005:
MSHR contents

In Dram Latency Queue (total = 0): 
DRAM[2]: 16 bks, busW=4 BL=8 CL=12, tRRD=2 tCCD=6, tRCD=12 tRAS=28 tRP=12 tRC=40
n_cmd=303509 n_nop=303240 n_act=4 n_pre=0 n_req=179 n_rd=172 n_write=93 bw_util=0.001746
n_activity=2340 dram_eff=0.2265
bk0: 0a 303509i bk1: 0a 303510i bk2: 0a 303511i bk3: 0a 303511i bk4: 20a 303345i bk5: 24a 303303i bk6: 64a 303027i bk7: 64a 303027i bk8: 0a 303506i bk9: 0a 303507i bk10: 0a 303507i bk11: 0a 303509i bk12: 0a 303509i bk13: 0a 303509i bk14: 0a 303509i bk15: 0a 303509i 
dram_util_bins: 0 0 0 0 0 0 0 0 0 0
dram_eff_bins: 0 0 0 0 0 0 0 0 0 0
mrqq: max=1 avg=0.000112023
Memory Partition 3: 
Cache L2_bank_006:
MSHR contents

Cache L2_bank_007:
MSHR contents

In Dram Latency Queue (total = 0): 
DRAM[3]: 16 bks, busW=4 BL=8 CL=12, tRRD=2 tCCD=6, tRCD=12 tRAS=28 tRP=12 tRC=40
n_cmd=303509 n_nop=303241 n_act=4 n_pre=0 n_req=178 n_rd=172 n_write=92 bw_util=0.00174
n_activity=2347 dram_eff=0.225
bk0: 0a 303509i bk1: 0a 303510i bk2: 0a 303511i bk3: 0a 303511i bk4: 20a 303355i bk5: 24a 303309i bk6: 64a 303028i bk7: 64a 303033i bk8: 0a 303506i bk9: 0a 303507i bk10: 0a 303507i bk11: 0a 303509i bk12: 0a 303509i bk13: 0a 303509i bk14: 0a 303509i bk15: 0a 303509i 
dram_util_bins: 0 0 0 0 0 0 0 0 0 0
dram_eff_bins: 0 0 0 0 0 0 0 0 0 0
mrqq: max=1 avg=8.89595e-05
Memory Partition 4: 
Cache L2_bank_008:
MSHR contents

Cache L2_bank_009:
MSHR contents

In Dram Latency Queue (total = 0): 
DRAM[4]: 16 bks, busW=4 BL=8 CL=12, tRRD=2 tCCD=6, tRCD=12 tRAS=28 tRP=12 tRC=40
n_cmd=303509 n_nop=303241 n_act=4 n_pre=0 n_req=178 n_rd=172 n_write=92 bw_util=0.00174
n_activity=2332 dram_eff=0.2264
bk0: 0a 303509i bk1: 0a 303511i bk2: 0a 303511i bk3: 0a 303511i bk4: 20a 303328i bk5: 24a 303299i bk6: 64a 303037i bk7: 64a 303027i bk8: 0a 303505i bk9: 0a 303506i bk10: 0a 303507i bk11: 0a 303509i bk12: 0a 303509i bk13: 0a 303509i bk14: 0a 303509i bk15: 0a 303509i 
dram_util_bins: 0 0 0 0 0 0 0 0 0 0
dram_eff_bins: 0 0 0 0 0 0 0 0 0 0
mrqq: max=2 avg=0.00024711
Memory Partition 5: 
Cache L2_bank_010:
MSHR contents

Cache L2_bank_011:
MSHR contents

In Dram Latency Queue (total = 0): 
DRAM[5]: 16 bks, busW=4 BL=8 CL=12, tRRD=2 tCCD=6, tRCD=12 tRAS=28 tRP=12 tRC=40
n_cmd=303509 n_nop=303242 n_act=4 n_pre=0 n_req=177 n_rd=172 n_write=91 bw_util=0.001733
n_activity=2347 dram_eff=0.2241
bk0: 0a 303509i bk1: 0a 303510i bk2: 0a 303511i bk3: 0a 303512i bk4: 20a 303353i bk5: 24a 303318i bk6: 64a 303031i bk7: 64a 303022i bk8: 0a 303506i bk9: 0a 303506i bk10: 0a 303506i bk11: 0a 303509i bk12: 0a 303509i bk13: 0a 303509i bk14: 0a 303509i bk15: 0a 303509i 
dram_util_bins: 0 0 0 0 0 0 0 0 0 0
dram_eff_bins: 0 0 0 0 0 0 0 0 0 0
mrqq: max=1 avg=0.000112023

========= L2 cache stats =========
L2_cache_bank[0]: Access = 213, Miss = 45, Miss_rate = 0.211, Pending_hits = 11, Reservation_fails = 342
L2_cache_bank[1]: Access = 168, Miss = 42, Miss_rate = 0.250, Pending_hits = 4, Reservation_fails = 0
L2_cache_bank[2]: Access = 198, Miss = 44, Miss_rate = 0.222, Pending_hits = 7, Reservation_fails = 171
L2_cache_bank[3]: Access = 168, Miss = 42, Miss_rate = 0.250, Pending_hits = 2, Reservation_fails = 0
L2_cache_bank[4]: Access = 168, Miss = 42, Miss_rate = 0.250, Pending_hits = 4, Reservation_fails = 0
L2_cache_bank[5]: Access = 176, Miss = 44, Miss_rate = 0.250, Pending_hits = 3, Reservation_fails = 0
L2_cache_bank[6]: Access = 168, Miss = 42, Miss_rate = 0.250, Pending_hits = 3, Reservation_fails = 0
L2_cache_bank[7]: Access = 176, Miss = 44, Miss_rate = 0.250, Pending_hits = 3, Reservation_fails = 0
L2_cache_bank[8]: Access = 168, Miss = 42, Miss_rate = 0.250, Pending_hits = 2, Reservation_fails = 0
L2_cache_bank[9]: Access = 176, Miss = 44, Miss_rate = 0.250, Pending_hits = 4, Reservation_fails = 0
L2_cache_bank[10]: Access = 168, Miss = 42, Miss_rate = 0.250, Pending_hits = 3, Reservation_fails = 0
L2_cache_bank[11]: Access = 176, Miss = 44, Miss_rate = 0.250, Pending_hits = 2, Reservation_fails = 0
L2_total_cache_accesses = 2123
L2_total_cache_misses = 517
L2_total_cache_miss_rate = 0.2435
L2_total_cache_pending_hits = 48
L2_total_cache_reservation_fails = 513
L2_total_cache_breakdown:
	L2_cache_stats_breakdown[CONST_ACC_R][HIT] = 11
	L2_cache_stats_breakdown[CONST_ACC_R][HIT_RESERVED] = 3
	L2_cache_stats_breakdown[CONST_ACC_R][MISS] = 1
	L2_cache_stats_breakdown[CONST_ACC_R][RESERVATION_FAIL] = 109
	L2_cache_stats_breakdown[GLOBAL_ACC_W][HIT] = 1503
	L2_cache_stats_breakdown[GLOBAL_ACC_W][HIT_RESERVED] = 33
	L2_cache_stats_breakdown[GLOBAL_ACC_W][MISS] = 512
	L2_cache_stats_breakdown[INST_ACC_R][HIT] = 44
	L2_cache_stats_breakdown[INST_ACC_R][HIT_RESERVED] = 12
	L2_cache_stats_breakdown[INST_ACC_R][MISS] = 4
	L2_cache_stats_breakdown[INST_ACC_R][RESERVATION_FAIL] = 404
L2_cache_data_port_util = 0.001
L2_cache_fill_port_util = 0.001

icnt_total_pkts_mem_to_simt=2393
icnt_total_pkts_simt_to_mem=4171
LD_mem_lat_dist  0 0 0 0 0 0 0 0 0 0 0 0 0 0 0 0 0 0 0 0 0 0 0 0 0 0 0
ST_mem_lat_dist  0 0 0 0 0 0 0 0 0 0 0 0 0 0 0 0 0 0 0 0 0 0 0 0 0 0 0
----------------------------Interconnect-DETAILS--------------------------------
Class 0:
Packet latency average = 6.74211
	minimum = 6
	maximum = 34
Network latency average = 6.66557
	minimum = 6
	maximum = 34
Slowest packet = 14
Flit latency average = 6.2177
	minimum = 6
	maximum = 34
Slowest flit = 14
Fragmentation average = 0
	minimum = 0
	maximum = 0
Injected packet rate average = 0.000683938
	minimum = 0.000569734 (at node 1)
	maximum = 0.000926361 (at node 15)
Accepted packet rate average = 0.000683938
	minimum = 0.000569734 (at node 1)
	maximum = 0.000926361 (at node 15)
Injected flit rate average = 0.00105732
	minimum = 0.000730651 (at node 16)
	maximum = 0.00157873 (at node 15)
Accepted flit rate average= 0.00105732
	minimum = 0.000648018 (at node 1)
	maximum = 0.00165701 (at node 15)
Injected packet length average = 1.54593
Accepted packet length average = 1.54593
Total in-flight flits = 0 (0 measured)
====== Overall Traffic Statistics ======
====== Traffic class 0 ======
Packet latency average = 6.74211 (1 samples)
	minimum = 6 (1 samples)
	maximum = 34 (1 samples)
Network latency average = 6.66557 (1 samples)
	minimum = 6 (1 samples)
	maximum = 34 (1 samples)
Flit latency average = 6.2177 (1 samples)
	minimum = 6 (1 samples)
	maximum = 34 (1 samples)
Fragmentation average = 0 (1 samples)
	minimum = 0 (1 samples)
	maximum = 0 (1 samples)
Injected packet rate average = 0.000683938 (1 samples)
	minimum = 0.000569734 (1 samples)
	maximum = 0.000926361 (1 samples)
Accepted packet rate average = 0.000683938 (1 samples)
	minimum = 0.000569734 (1 samples)
	maximum = 0.000926361 (1 samples)
Injected flit rate average = 0.00105732 (1 samples)
	minimum = 0.000730651 (1 samples)
	maximum = 0.00157873 (1 samples)
Accepted flit rate average = 0.00105732 (1 samples)
	minimum = 0.000648018 (1 samples)
	maximum = 0.00165701 (1 samples)
Injected packet size average = 1.54593 (1 samples)
Accepted packet size average = 1.54593 (1 samples)
Hops average = 1 (1 samples)
----------------------------END-of-Interconnect-DETAILS-------------------------


gpgpu_simulation_time = 0 days, 0 hrs, 2 min, 42 sec (162 sec)
gpgpu_simulation_rate = 323824 (inst/sec)
gpgpu_simulation_rate = 1419 (cycle/sec)
