

        *** GPGPU-Sim Simulator Version 3.2.2  [build 17315] ***


GPGPU-Sim PTX: simulation mode 0 (can change with PTX_SIM_MODE_FUNC environment variable:
               1=functional simulation only, 0=detailed performance simulator)
GPGPU-Sim: Configuration options:

-network_mode                           1 # Interconnection network mode
-inter_config_file   config_fermi_islip.icnt # Interconnection network config file
-gpgpu_ptx_use_cuobjdump                    1 # Use cuobjdump to extract ptx and sass from binaries
-gpgpu_experimental_lib_support                    0 # Try to extract code from cuda libraries [Broken because of unknown cudaGetExportTable]
-gpgpu_ptx_convert_to_ptxplus                    0 # Convert SASS (native ISA) to ptxplus and run ptxplus
-gpgpu_ptx_force_max_capability                   20 # Force maximum compute capability
-gpgpu_ptx_inst_debug_to_file                    0 # Dump executed instructions' debug information to file
-gpgpu_ptx_inst_debug_file       inst_debug.txt # Executed instructions' debug output file
-gpgpu_ptx_inst_debug_thread_uid                    1 # Thread UID for executed instructions' debug output
-gpgpu_simd_model                       1 # 1 = post-dominator
-gpgpu_shader_core_pipeline              1536:32 # shader core pipeline config, i.e., {<nthread>:<warpsize>}
-gpgpu_tex_cache:l1  4:128:24,L:R:m:N,F:128:4,128:2 # per-shader L1 texture cache  (READ-ONLY) config  {<nsets>:<bsize>:<assoc>,<rep>:<wr>:<alloc>:<wr_alloc>,<mshr>:<N>:<merge>,<mq>:<rf>}
-gpgpu_const_cache:l1 64:64:2,L:R:f:N,A:2:32,4 # per-shader L1 constant memory cache  (READ-ONLY) config  {<nsets>:<bsize>:<assoc>,<rep>:<wr>:<alloc>:<wr_alloc>,<mshr>:<N>:<merge>,<mq>} 
-gpgpu_cache:il1     4:128:4,L:R:f:N,A:2:32,4 # shader L1 instruction cache config  {<nsets>:<bsize>:<assoc>,<rep>:<wr>:<alloc>:<wr_alloc>,<mshr>:<N>:<merge>,<mq>} 
-gpgpu_cache:dl1     32:128:4,L:L:m:N,A:32:8,8 # per-shader L1 data cache config  {<nsets>:<bsize>:<assoc>,<rep>:<wr>:<alloc>:<wr_alloc>,<mshr>:<N>:<merge>,<mq> | none}
-gpgpu_cache:dl1PrefL1                 none # per-shader L1 data cache config  {<nsets>:<bsize>:<assoc>,<rep>:<wr>:<alloc>:<wr_alloc>,<mshr>:<N>:<merge>,<mq> | none}
-gpgpu_cache:dl1PreShared                 none # per-shader L1 data cache config  {<nsets>:<bsize>:<assoc>,<rep>:<wr>:<alloc>:<wr_alloc>,<mshr>:<N>:<merge>,<mq> | none}
-gmem_skip_L1D                          0 # global memory access skip L1D cache (implements -Xptxas -dlcm=cg, default=no skip)
-gpgpu_perfect_mem                      0 # enable perfect memory mode (no cache miss)
-n_regfile_gating_group                    4 # group of lanes that should be read/written together)
-gpgpu_clock_gated_reg_file                    0 # enable clock gated reg file for power calculations
-gpgpu_clock_gated_lanes                    0 # enable clock gated lanes for power calculations
-gpgpu_shader_registers                32768 # Number of registers per shader core. Limits number of concurrent CTAs. (default 8192)
-gpgpu_shader_cta                       8 # Maximum number of concurrent CTAs in shader (default 8)
-gpgpu_n_clusters                      15 # number of processing clusters
-gpgpu_n_cores_per_cluster                    1 # number of simd cores per cluster
-gpgpu_n_cluster_ejection_buffer_size                    8 # number of packets in ejection buffer
-gpgpu_n_ldst_response_buffer_size                    2 # number of response packets in ld/st unit ejection buffer
-gpgpu_shmem_size                   16384 # Size of shared memory per shader core (default 16kB)
-gpgpu_shmem_size                   49152 # Size of shared memory per shader core (default 16kB)
-gpgpu_shmem_size_PrefL1                16384 # Size of shared memory per shader core (default 16kB)
-gpgpu_shmem_size_PrefShared                16384 # Size of shared memory per shader core (default 16kB)
-gpgpu_shmem_num_banks                   32 # Number of banks in the shared memory in each shader core (default 16)
-gpgpu_shmem_limited_broadcast                    0 # Limit shared memory to do one broadcast per cycle (default on)
-gpgpu_shmem_warp_parts                    1 # Number of portions a warp is divided into for shared memory bank conflict check 
-gpgpu_warpdistro_shader                   -1 # Specify which shader core to collect the warp size distribution from
-gpgpu_warp_issue_shader                    0 # Specify which shader core to collect the warp issue distribution from
-gpgpu_local_mem_map                    1 # Mapping from local memory space address to simulated GPU physical address space (default = enabled)
-gpgpu_num_reg_banks                   16 # Number of register banks (default = 8)
-gpgpu_reg_bank_use_warp_id                    0 # Use warp ID in mapping registers to banks (default = off)
-gpgpu_operand_collector_num_units_sp                    6 # number of collector units (default = 4)
-gpgpu_operand_collector_num_units_sfu                    8 # number of collector units (default = 4)
-gpgpu_operand_collector_num_units_mem                    2 # number of collector units (default = 2)
-gpgpu_operand_collector_num_units_gen                    0 # number of collector units (default = 0)
-gpgpu_operand_collector_num_in_ports_sp                    2 # number of collector unit in ports (default = 1)
-gpgpu_operand_collector_num_in_ports_sfu                    1 # number of collector unit in ports (default = 1)
-gpgpu_operand_collector_num_in_ports_mem                    1 # number of collector unit in ports (default = 1)
-gpgpu_operand_collector_num_in_ports_gen                    0 # number of collector unit in ports (default = 0)
-gpgpu_operand_collector_num_out_ports_sp                    2 # number of collector unit in ports (default = 1)
-gpgpu_operand_collector_num_out_ports_sfu                    1 # number of collector unit in ports (default = 1)
-gpgpu_operand_collector_num_out_ports_mem                    1 # number of collector unit in ports (default = 1)
-gpgpu_operand_collector_num_out_ports_gen                    0 # number of collector unit in ports (default = 0)
-gpgpu_coalesce_arch                   13 # Coalescing arch (default = 13, anything else is off for now)
-gpgpu_num_sched_per_core                    2 # Number of warp schedulers per core
-gpgpu_max_insn_issue_per_warp                    1 # Max number of instructions that can be issued per warp in one cycle by scheduler
-gpgpu_simt_core_sim_order                    1 # Select the simulation order of cores in a cluster (0=Fix, 1=Round-Robin)
-gpgpu_pipeline_widths        2,1,1,2,1,1,2 # Pipeline widths ID_OC_SP,ID_OC_SFU,ID_OC_MEM,OC_EX_SP,OC_EX_SFU,OC_EX_MEM,EX_WB
-gpgpu_num_sp_units                     2 # Number of SP units (default=1)
-gpgpu_num_sfu_units                    1 # Number of SF units (default=1)
-gpgpu_num_mem_units                    1 # Number if ldst units (default=1) WARNING: not hooked up to anything
-gpgpu_scheduler                      gto # Scheduler configuration: < lrr | gto | two_level_active > If two_level_active:<num_active_warps>:<inner_prioritization>:<outer_prioritization>For complete list of prioritization values see shader.h enum scheduler_prioritization_typeDefault: gto
-gpgpu_dram_scheduler                    1 # 0 = fifo, 1 = FR-FCFS (defaul)
-gpgpu_dram_partition_queues              8:8:8:8 # i2$:$2d:d2$:$2i
-l2_ideal                               0 # Use a ideal L2 cache that always hit
-gpgpu_cache:dl2     64:128:8,L:B:m:W,A:32:4,4:0,32 # unified banked L2 data cache config  {<nsets>:<bsize>:<assoc>,<rep>:<wr>:<alloc>:<wr_alloc>,<mshr>:<N>:<merge>,<mq>}
-gpgpu_cache:dl2_texture_only                    0 # L2 cache used for texture only
-gpgpu_n_mem                            6 # number of memory modules (e.g. memory controllers) in gpu
-gpgpu_n_sub_partition_per_mchannel                    2 # number of memory subpartition in each memory module
-gpgpu_n_mem_per_ctrlr                    2 # number of memory chips per memory controller
-gpgpu_memlatency_stat                   14 # track and display latency statistics 0x2 enables MC, 0x4 enables queue logs
-gpgpu_frfcfs_dram_sched_queue_size                   16 # 0 = unlimited (default); # entries per chip
-gpgpu_dram_return_queue_size                  116 # 0 = unlimited (default); # entries per chip
-gpgpu_dram_buswidth                    4 # default = 4 bytes (8 bytes per cycle at DDR)
-gpgpu_dram_burst_length                    8 # Burst length of each DRAM request (default = 4 data bus cycle)
-dram_data_command_freq_ratio                    4 # Frequency ratio between DRAM data bus and command bus (default = 2 times, i.e. DDR)
-gpgpu_dram_timing_opt nbk=16:CCD=2:RRD=6:RCD=12:RAS=28:RP=12:RC=40: CL=12:WL=4:CDLR=5:WR=12:nbkgrp=4:CCDL=3:RTPL=2 # DRAM timing parameters = {nbk:tCCD:tRRD:tRCD:tRAS:tRP:tRC:CL:WL:tCDLR:tWR:nbkgrp:tCCDL:tRTPL}
-rop_latency                          120 # ROP queue latency (default 85)
-dram_latency                         100 # DRAM latency (default 30)
-gpgpu_mem_addr_mapping dramid@8;00000000.00000000.00000000.00000000.0000RRRR.RRRRRRRR.BBBCCCCB.CCSSSSSS # mapping memory address to dram model {dramid@<start bit>;<memory address map>}
-gpgpu_mem_addr_test                    0 # run sweep test to check address mapping for aliased address
-gpgpu_mem_address_mask                    1 # 0 = old addressing mask, 1 = new addressing mask, 2 = new add. mask + flipped bank sel and chip sel bits
-gpuwattch_xml_file         gpuwattch.xml # GPUWattch XML file
-power_simulation_enabled                    0 # Turn on power simulator (1=On, 0=Off)
-power_per_cycle_dump                    0 # Dump detailed power output each cycle
-power_trace_enabled                    0 # produce a file for the power trace (1=On, 0=Off)
-power_trace_zlevel                     6 # Compression level of the power trace output log (0=no comp, 9=highest)
-steady_power_levels_enabled                    0 # produce a file for the steady power levels (1=On, 0=Off)
-steady_state_definition                  8:4 # allowed deviation:number of samples
-gpgpu_max_cycle                        0 # terminates gpu simulation early (0 = no limit)
-gpgpu_max_insn                         0 # terminates gpu simulation early (0 = no limit)
-gpgpu_max_cta                          0 # terminates gpu simulation early (0 = no limit)
-gpgpu_runtime_stat                   500 # display runtime statistics such as dram utilization {<freq>:<flag>}
-liveness_message_freq                    1 # Minimum number of seconds between simulation liveness messages (0 = always print)
-gpgpu_flush_l1_cache                    0 # Flush L1 cache at the end of each kernel call
-gpgpu_flush_l2_cache                    0 # Flush L2 cache at the end of each kernel call
-gpgpu_deadlock_detect                    1 # Stop the simulation at deadlock (1=on (default), 0=off)
-gpgpu_ptx_instruction_classification                    0 # if enabled will classify ptx instruction types per kernel (Max 255 kernels now)
-gpgpu_ptx_sim_mode                     0 # Select between Performance (default) or Functional simulation (1)
-gpgpu_clock_domains 700.0:700.0:700.0:924.0 # Clock Domain Frequencies in MhZ {<Core Clock>:<ICNT Clock>:<L2 Clock>:<DRAM Clock>}
-gpgpu_max_concurrent_kernel                    8 # maximum kernels that can run concurrently on GPU
-gpgpu_cflog_interval                    0 # Interval between each snapshot in control flow logger
-visualizer_enabled                     0 # Turn on visualizer output (1=On, 0=Off)
-visualizer_outputfile                 NULL # Specifies the output log file for visualizer
-visualizer_zlevel                      6 # Compression level of the visualizer output log (0=no comp, 9=highest)
-trace_enabled                          0 # Turn on traces
-trace_components                    none # comma seperated list of traces to enable. Complete list found in trace_streams.tup. Default none
-trace_sampling_core                    0 # The core which is printed using CORE_DPRINTF. Default 0
-trace_sampling_memory_partition                   -1 # The memory partition which is printed using MEMPART_DPRINTF. Default -1 (i.e. all)
-enable_ptx_file_line_stats                    1 # Turn on PTX source line statistic profiling. (1 = On)
-ptx_line_stats_filename gpgpu_inst_stats.txt # Output file for PTX source line statistics.
-save_embedded_ptx                      0 # saves ptx files embedded in binary as <n>.ptx
-keep                                   0 # keep intermediate files created by GPGPU-Sim when interfacing with external programs
-gpgpu_ptx_save_converted_ptxplus                    0 # Saved converted ptxplus to a file
-ptx_opcode_latency_int         4,13,4,5,145 # Opcode latencies for integers <ADD,MAX,MUL,MAD,DIV>Default 1,1,19,25,145
-ptx_opcode_latency_fp          4,13,4,5,39 # Opcode latencies for single precision floating points <ADD,MAX,MUL,MAD,DIV>Default 1,1,1,1,30
-ptx_opcode_latency_dp         8,19,8,8,330 # Opcode latencies for double precision floating points <ADD,MAX,MUL,MAD,DIV>Default 8,8,8,8,335
-ptx_opcode_initiation_int            1,2,2,1,8 # Opcode initiation intervals for integers <ADD,MAX,MUL,MAD,DIV>Default 1,1,4,4,32
-ptx_opcode_initiation_fp            1,2,1,1,4 # Opcode initiation intervals for single precision floating points <ADD,MAX,MUL,MAD,DIV>Default 1,1,1,1,5
-ptx_opcode_initiation_dp         8,16,8,8,130 # Opcode initiation intervals for double precision floating points <ADD,MAX,MUL,MAD,DIV>Default 8,8,8,8,130
DRAM Timing Options:
nbk                                    16 # number of banks
CCD                                     2 # column to column delay
RRD                                     6 # minimal delay between activation of rows in different banks
RCD                                    12 # row to column delay
RAS                                    28 # time needed to activate row
RP                                     12 # time needed to precharge (deactivate) row
RC                                     40 # row cycle time
CDLR                                    5 # switching from write to read (changes tWTR)
WR                                     12 # last data-in to row precharge
CL                                     12 # CAS latency
WL                                      4 # Write latency
nbkgrp                                  4 # number of bank groups
CCDL                                    3 # column to column delay between accesses to different bank groups
RTPL                                    2 # read to precharge delay between accesses to different bank groups
Total number of memory sub partition = 12
addr_dec_mask[CHIP]  = 0000000000000000 	high:64 low:0
addr_dec_mask[BK]    = 000000000000e100 	high:16 low:8
addr_dec_mask[ROW]   = 000000000fff0000 	high:28 low:16
addr_dec_mask[COL]   = 0000000000001eff 	high:13 low:0
addr_dec_mask[BURST] = 000000000000003f 	high:6 low:0
sub_partition_id_mask = 0000000000000100
GPGPU-Sim uArch: clock freqs: 700000000.000000:700000000.000000:700000000.000000:924000000.000000
GPGPU-Sim uArch: clock periods: 0.00000000142857142857:0.00000000142857142857:0.00000000142857142857:0.00000000108225108225
*** Initializing Memory Statistics ***
GPGPU-Sim uArch: interconnect node map (shaderID+MemID to icntID)
GPGPU-Sim uArch: Memory nodes ID start from index: 15
GPGPU-Sim uArch:    0   1   2   3   4
GPGPU-Sim uArch:    5   6   7   8   9
GPGPU-Sim uArch:   10  11  12  13  14
GPGPU-Sim uArch:   15  16  17  18  19
GPGPU-Sim uArch:   20  21  22  23  24
GPGPU-Sim uArch:   25  26
GPGPU-Sim uArch: interconnect node reverse map (icntID to shaderID+MemID)
GPGPU-Sim uArch: Memory nodes start from ID: 15
GPGPU-Sim uArch:    0   1   2   3   4
GPGPU-Sim uArch:    5   6   7   8   9
GPGPU-Sim uArch:   10  11  12  13  14
GPGPU-Sim uArch:   15  16  17  18  19
GPGPU-Sim uArch:   20  21  22  23  24
GPGPU-Sim uArch:   25  26
35e4989e7e2383a1c0ff536b7ce586fc  /afs/tu-berlin.de/home/t/tobias.fuchs/irb-ubuntu/Dokumente/new4/MCS1415/CUDA/assignment1/gpumcs/gpu_out
GPGPU-Sim uArch: performance model initialization complete.
GPGPU-Sim PTX: __cudaRegisterFatBinary, fat_cubin_handle = 1, filename=gpu_julia.cu
self exe links to: /afs/tu-berlin.de/home/t/tobias.fuchs/irb-ubuntu/Dokumente/new4/MCS1415/CUDA/assignment1/gpumcs/gpu_out
Running md5sum using "md5sum /afs/tu-berlin.de/home/t/tobias.fuchs/irb-ubuntu/Dokumente/new4/MCS1415/CUDA/assignment1/gpumcs/gpu_out "
Running cuobjdump using "$CUDA_INSTALL_PATH/bin/cuobjdump -ptx -elf -sass /afs/tu-berlin.de/home/t/tobias.fuchs/irb-ubuntu/Dokumente/new4/MCS1415/CUDA/assignment1/gpumcs/gpu_out > _cuobjdump_complete_output_hkuVRr"
Parsing file _cuobjdump_complete_output_hkuVRr
######### cuobjdump parser ########
## Adding new section ELF
Adding arch: sm_10
Adding identifier: gpu_julia.cu
## Adding new section PTX
Adding ptx filename: _cuobjdump_1.ptx
Adding arch: sm_10
Adding identifier: gpu_julia.cu
Done parsing!!!
GPGPU-Sim PTX: __cudaRegisterFunction _Z12calc_fractaliiffPh : hostFun 0x0x401073, fat_cubin_handle = 1
GPGPU-Sim PTX: instruction assembly for function '_Z12calc_fractaliiffPh'...   done.
GPGPU-Sim PTX: finding reconvergence points for '_Z12calc_fractaliiffPh'...
GPGPU-Sim PTX: Finding dominators for '_Z12calc_fractaliiffPh'...
GPGPU-Sim PTX: Finding immediate dominators for '_Z12calc_fractaliiffPh'...
GPGPU-Sim PTX: Finding postdominators for '_Z12calc_fractaliiffPh'...
GPGPU-Sim PTX: Finding immediate postdominators for '_Z12calc_fractaliiffPh'...
GPGPU-Sim PTX: pre-decoding instructions for '_Z12calc_fractaliiffPh'...
GPGPU-Sim PTX: reconvergence points for _Z12calc_fractaliiffPh...
GPGPU-Sim PTX:  1 (potential) branch divergence @  PC=0x100 (_1.ptx:101) @%p1 bra $Lt_0_258;
GPGPU-Sim PTX:    immediate post dominator      @  PC=0x158 (_1.ptx:117) ld.param.s32 %r4, [__cudaparm__Z12calc_fractaliiffPh_width];
GPGPU-Sim PTX:  2 (potential) branch divergence @  PC=0x150 (_1.ptx:114) @%p2 bra $Lt_0_2306;
GPGPU-Sim PTX:    immediate post dominator      @  PC=0x158 (_1.ptx:117) ld.param.s32 %r4, [__cudaparm__Z12calc_fractaliiffPh_width];
GPGPU-Sim PTX: ... end of reconvergence points for _Z12calc_fractaliiffPh
GPGPU-Sim PTX: ... done pre-decoding instructions for '_Z12calc_fractaliiffPh'.
GPGPU-Sim PTX: finished parsing EMBEDDED .ptx file _1.ptx
Adding _cuobjdump_1.ptx with cubin handle 1
GPGPU-Sim PTX: extracting embedded .ptx to temporary file "_ptx_j6wNZm"
Running: cat _ptx_j6wNZm | sed 's/.version 1.5/.version 1.4/' | sed 's/, texmode_independent//' | sed 's/\(\.extern \.const\[1\] .b8 \w\+\)\[\]/\1\[1\]/' | sed 's/const\[.\]/const\[0\]/g' > _ptx2_R0al8h
GPGPU-Sim PTX: generating ptxinfo using "$CUDA_INSTALL_PATH/bin/ptxas --gpu-name=sm_20 -v _ptx2_R0al8h --output-file  /dev/null 2> _ptx_j6wNZminfo"
GPGPU-Sim PTX: Kernel '_Z12calc_fractaliiffPh' : regs=9, lmem=0, smem=0, cmem=60
GPGPU-Sim PTX: removing ptxinfo using "rm -f _ptx_j6wNZm _ptx2_R0al8h _ptx_j6wNZminfo"
GPGPU-Sim PTX: loading globals with explicit initializers... 
GPGPU-Sim PTX: finished loading globals (0 bytes total).
GPGPU-Sim PTX: loading constants with explicit initializers...  done.

GPGPU-Sim PTX: cudaLaunch for 0x0x401073 (mode=performance simulation) on stream 0
GPGPU-Sim PTX: pushing kernel '_Z12calc_fractaliiffPh' to stream 0, gridDim= (8,32,1) blockDim = (32,8,1) 
kernel '_Z12calc_fractaliiffPh' transfer to GPU hardware scheduler
GPGPU-Sim uArch: Shader 1 bind to kernel 1 '_Z12calc_fractaliiffPh'
GPGPU-Sim uArch: CTA/core = 6, limited by: threads
GPGPU-Sim uArch: core:  1, cta: 0 initialized @(1,0)
GPGPU-Sim uArch: Shader 2 bind to kernel 1 '_Z12calc_fractaliiffPh'
GPGPU-Sim uArch: core:  2, cta: 0 initialized @(1,0)
GPGPU-Sim uArch: Shader 3 bind to kernel 1 '_Z12calc_fractaliiffPh'
GPGPU-Sim uArch: core:  3, cta: 0 initialized @(1,0)
GPGPU-Sim uArch: Shader 4 bind to kernel 1 '_Z12calc_fractaliiffPh'
GPGPU-Sim uArch: core:  4, cta: 0 initialized @(1,0)
GPGPU-Sim uArch: Shader 5 bind to kernel 1 '_Z12calc_fractaliiffPh'
GPGPU-Sim uArch: core:  5, cta: 0 initialized @(1,0)
GPGPU-Sim uArch: Shader 6 bind to kernel 1 '_Z12calc_fractaliiffPh'
GPGPU-Sim uArch: core:  6, cta: 0 initialized @(1,0)
GPGPU-Sim uArch: Shader 7 bind to kernel 1 '_Z12calc_fractaliiffPh'
GPGPU-Sim uArch: core:  7, cta: 0 initialized @(1,0)
GPGPU-Sim uArch: Shader 8 bind to kernel 1 '_Z12calc_fractaliiffPh'
GPGPU-Sim uArch: core:  8, cta: 0 initialized @(1,0)
GPGPU-Sim uArch: Shader 9 bind to kernel 1 '_Z12calc_fractaliiffPh'
GPGPU-Sim uArch: core:  9, cta: 0 initialized @(1,0)
GPGPU-Sim uArch: Shader 10 bind to kernel 1 '_Z12calc_fractaliiffPh'
GPGPU-Sim uArch: core: 10, cta: 0 initialized @(1,0)
GPGPU-Sim uArch: Shader 11 bind to kernel 1 '_Z12calc_fractaliiffPh'
GPGPU-Sim uArch: core: 11, cta: 0 initialized @(1,0)
GPGPU-Sim uArch: Shader 12 bind to kernel 1 '_Z12calc_fractaliiffPh'
GPGPU-Sim uArch: core: 12, cta: 0 initialized @(1,0)
GPGPU-Sim uArch: Shader 13 bind to kernel 1 '_Z12calc_fractaliiffPh'
GPGPU-Sim uArch: core: 13, cta: 0 initialized @(1,0)
GPGPU-Sim uArch: Shader 14 bind to kernel 1 '_Z12calc_fractaliiffPh'
GPGPU-Sim uArch: core: 14, cta: 0 initialized @(1,0)
GPGPU-Sim uArch: Shader 0 bind to kernel 1 '_Z12calc_fractaliiffPh'
GPGPU-Sim uArch: core:  0, cta: 0 initialized @(1,0)
GPGPU-Sim uArch: core:  1, cta: 1 initialized @(2,0)
GPGPU-Sim uArch: core:  2, cta: 1 initialized @(2,0)
GPGPU-Sim uArch: core:  3, cta: 1 initialized @(2,0)
GPGPU-Sim uArch: core:  4, cta: 1 initialized @(2,0)
GPGPU-Sim uArch: core:  5, cta: 1 initialized @(2,0)
GPGPU-Sim uArch: core:  6, cta: 1 initialized @(2,0)
GPGPU-Sim uArch: core:  7, cta: 1 initialized @(2,0)
GPGPU-Sim uArch: core:  8, cta: 1 initialized @(2,0)
GPGPU-Sim uArch: core:  9, cta: 1 initialized @(2,0)
GPGPU-Sim uArch: core: 10, cta: 1 initialized @(2,0)
GPGPU-Sim uArch: core: 11, cta: 1 initialized @(2,0)
GPGPU-Sim uArch: core: 12, cta: 1 initialized @(2,0)
GPGPU-Sim uArch: core: 13, cta: 1 initialized @(2,0)
GPGPU-Sim uArch: core: 14, cta: 1 initialized @(2,0)
GPGPU-Sim uArch: core:  0, cta: 1 initialized @(2,0)
GPGPU-Sim uArch: core:  1, cta: 2 initialized @(3,0)
GPGPU-Sim uArch: core:  2, cta: 2 initialized @(3,0)
GPGPU-Sim uArch: core:  3, cta: 2 initialized @(3,0)
GPGPU-Sim uArch: core:  4, cta: 2 initialized @(3,0)
GPGPU-Sim uArch: core:  5, cta: 2 initialized @(3,0)
GPGPU-Sim uArch: core:  6, cta: 2 initialized @(3,0)
GPGPU-Sim uArch: core:  7, cta: 2 initialized @(3,0)
GPGPU-Sim uArch: core:  8, cta: 2 initialized @(3,0)
GPGPU-Sim uArch: core:  9, cta: 2 initialized @(3,0)
GPGPU-Sim uArch: core: 10, cta: 2 initialized @(3,0)
GPGPU-Sim uArch: core: 11, cta: 2 initialized @(3,0)
GPGPU-Sim uArch: core: 12, cta: 2 initialized @(3,0)
GPGPU-Sim uArch: core: 13, cta: 2 initialized @(3,0)
GPGPU-Sim uArch: core: 14, cta: 2 initialized @(3,0)
GPGPU-Sim uArch: core:  0, cta: 2 initialized @(3,0)
GPGPU-Sim uArch: core:  1, cta: 3 initialized @(4,0)
GPGPU-Sim uArch: core:  2, cta: 3 initialized @(4,0)
GPGPU-Sim uArch: core:  3, cta: 3 initialized @(4,0)
GPGPU-Sim uArch: core:  4, cta: 3 initialized @(4,0)
GPGPU-Sim uArch: core:  5, cta: 3 initialized @(4,0)
GPGPU-Sim uArch: core:  6, cta: 3 initialized @(4,0)
GPGPU-Sim uArch: core:  7, cta: 3 initialized @(4,0)
GPGPU-Sim uArch: core:  8, cta: 3 initialized @(4,0)
GPGPU-Sim uArch: core:  9, cta: 3 initialized @(4,0)
GPGPU-Sim uArch: core: 10, cta: 3 initialized @(4,0)
GPGPU-Sim uArch: core: 11, cta: 3 initialized @(4,0)
GPGPU-Sim uArch: core: 12, cta: 3 initialized @(4,0)
GPGPU-Sim uArch: core: 13, cta: 3 initialized @(4,0)
GPGPU-Sim uArch: core: 14, cta: 3 initialized @(4,0)
GPGPU-Sim uArch: core:  0, cta: 3 initialized @(4,0)
GPGPU-Sim uArch: core:  1, cta: 4 initialized @(5,0)
GPGPU-Sim uArch: core:  2, cta: 4 initialized @(5,0)
GPGPU-Sim uArch: core:  3, cta: 4 initialized @(5,0)
GPGPU-Sim uArch: core:  4, cta: 4 initialized @(5,0)
GPGPU-Sim uArch: core:  5, cta: 4 initialized @(5,0)
GPGPU-Sim uArch: core:  6, cta: 4 initialized @(5,0)
GPGPU-Sim uArch: core:  7, cta: 4 initialized @(5,0)
GPGPU-Sim uArch: core:  8, cta: 4 initialized @(5,0)
GPGPU-Sim uArch: core:  9, cta: 4 initialized @(5,0)
GPGPU-Sim uArch: core: 10, cta: 4 initialized @(5,0)
GPGPU-Sim uArch: core: 11, cta: 4 initialized @(5,0)
GPGPU-Sim uArch: core: 12, cta: 4 initialized @(5,0)
GPGPU-Sim uArch: core: 13, cta: 4 initialized @(5,0)
GPGPU-Sim uArch: core: 14, cta: 4 initialized @(5,0)
GPGPU-Sim uArch: core:  0, cta: 4 initialized @(5,0)
GPGPU-Sim uArch: core:  1, cta: 5 initialized @(6,0)
GPGPU-Sim uArch: core:  2, cta: 5 initialized @(6,0)
GPGPU-Sim uArch: core:  3, cta: 5 initialized @(6,0)
GPGPU-Sim uArch: core:  4, cta: 5 initialized @(6,0)
GPGPU-Sim uArch: core:  5, cta: 5 initialized @(6,0)
GPGPU-Sim uArch: core:  6, cta: 5 initialized @(6,0)
GPGPU-Sim uArch: core:  7, cta: 5 initialized @(6,0)
GPGPU-Sim uArch: core:  8, cta: 5 initialized @(6,0)
GPGPU-Sim uArch: core:  9, cta: 5 initialized @(6,0)
GPGPU-Sim uArch: core: 10, cta: 5 initialized @(6,0)
GPGPU-Sim uArch: core: 11, cta: 5 initialized @(6,0)
GPGPU-Sim uArch: core: 12, cta: 5 initialized @(6,0)
GPGPU-Sim uArch: core: 13, cta: 5 initialized @(6,0)
GPGPU-Sim uArch: core: 14, cta: 5 initialized @(6,0)
GPGPU-Sim uArch: core:  0, cta: 5 initialized @(6,0)
GPGPU-Sim PTX: 100000 instructions simulated : ctaid=(1,4,0) tid=(31,1,0)
GPGPU-Sim uArch: cycles simulated: 500  inst.: 137568 (ipc=275.1) sim_rate=137568 (inst/sec) elapsed = 0:0:00:01 / Fri Jan 16 05:27:20 2015
GPGPU-Sim PTX: 200000 instructions simulated : ctaid=(1,0,0) tid=(31,7,0)
GPGPU-Sim PTX: 300000 instructions simulated : ctaid=(1,0,0) tid=(31,7,0)
GPGPU-Sim PTX: 400000 instructions simulated : ctaid=(3,1,0) tid=(31,0,0)
GPGPU-Sim PTX: 500000 instructions simulated : ctaid=(6,9,0) tid=(31,6,0)
GPGPU-Sim PTX: 600000 instructions simulated : ctaid=(6,8,0) tid=(31,0,0)
GPGPU-Sim PTX: 700000 instructions simulated : ctaid=(6,6,0) tid=(31,1,0)
GPGPU-Sim uArch: cycles simulated: 1500  inst.: 717696 (ipc=478.5) sim_rate=358848 (inst/sec) elapsed = 0:0:00:02 / Fri Jan 16 05:27:21 2015
GPGPU-Sim PTX: 800000 instructions simulated : ctaid=(7,5,0) tid=(31,7,0)
GPGPU-Sim PTX: 900000 instructions simulated : ctaid=(2,5,0) tid=(31,6,0)
GPGPU-Sim PTX: 1000000 instructions simulated : ctaid=(4,0,0) tid=(31,4,0)
GPGPU-Sim uArch: cycles simulated: 2000  inst.: 1046944 (ipc=523.5) sim_rate=348981 (inst/sec) elapsed = 0:0:00:03 / Fri Jan 16 05:27:22 2015
GPGPU-Sim PTX: 1100000 instructions simulated : ctaid=(2,3,0) tid=(31,0,0)
GPGPU-Sim PTX: 1200000 instructions simulated : ctaid=(6,2,0) tid=(31,2,0)
GPGPU-Sim PTX: 1300000 instructions simulated : ctaid=(1,0,0) tid=(8,4,0)
GPGPU-Sim PTX: 1400000 instructions simulated : ctaid=(3,3,0) tid=(6,1,0)
GPGPU-Sim PTX: 1500000 instructions simulated : ctaid=(2,1,0) tid=(17,3,0)
GPGPU-Sim PTX: 1600000 instructions simulated : ctaid=(7,2,0) tid=(16,4,0)
GPGPU-Sim PTX: 1700000 instructions simulated : ctaid=(6,2,0) tid=(2,0,0)
GPGPU-Sim PTX: 1800000 instructions simulated : ctaid=(4,0,0) tid=(10,0,0)
GPGPU-Sim uArch: cycles simulated: 3000  inst.: 1792222 (ipc=597.4) sim_rate=448055 (inst/sec) elapsed = 0:0:00:04 / Fri Jan 16 05:27:23 2015
GPGPU-Sim PTX: 1900000 instructions simulated : ctaid=(2,2,0) tid=(18,2,0)
GPGPU-Sim uArch: Shader 1 finished CTA #0 (3074,0), 5 CTAs running
GPGPU-Sim uArch: core:  1, cta: 0 initialized @(3075,0)
GPGPU-Sim PTX: 2000000 instructions simulated : ctaid=(6,1,0) tid=(25,2,0)
GPGPU-Sim PTX: 2100000 instructions simulated : ctaid=(3,0,0) tid=(21,3,0)
GPGPU-Sim PTX: 2200000 instructions simulated : ctaid=(3,1,0) tid=(12,3,0)
GPGPU-Sim PTX: 2300000 instructions simulated : ctaid=(7,2,0) tid=(9,0,0)
GPGPU-Sim PTX: 2400000 instructions simulated : ctaid=(5,0,0) tid=(28,1,0)
GPGPU-Sim PTX: 2500000 instructions simulated : ctaid=(2,3,0) tid=(30,1,0)
GPGPU-Sim PTX: 2600000 instructions simulated : ctaid=(3,1,0) tid=(4,4,0)
GPGPU-Sim uArch: cycles simulated: 4000  inst.: 2498422 (ipc=624.6) sim_rate=499684 (inst/sec) elapsed = 0:0:00:05 / Fri Jan 16 05:27:24 2015
GPGPU-Sim PTX: 2700000 instructions simulated : ctaid=(4,1,0) tid=(4,1,0)
GPGPU-Sim PTX: 2800000 instructions simulated : ctaid=(5,4,0) tid=(19,0,0)
GPGPU-Sim PTX: 2900000 instructions simulated : ctaid=(5,1,0) tid=(12,5,0)
GPGPU-Sim uArch: cycles simulated: 4500  inst.: 2824294 (ipc=627.6) sim_rate=470715 (inst/sec) elapsed = 0:0:00:06 / Fri Jan 16 05:27:25 2015
GPGPU-Sim PTX: 3000000 instructions simulated : ctaid=(6,3,0) tid=(15,3,0)
GPGPU-Sim PTX: 3100000 instructions simulated : ctaid=(2,0,0) tid=(11,1,0)
GPGPU-Sim uArch: Shader 7 finished CTA #0 (4707,0), 5 CTAs running
GPGPU-Sim uArch: core:  7, cta: 0 initialized @(4708,0)
GPGPU-Sim uArch: Shader 8 finished CTA #0 (4750,0), 5 CTAs running
GPGPU-Sim uArch: core:  8, cta: 0 initialized @(4751,0)
GPGPU-Sim uArch: Shader 0 finished CTA #0 (4813,0), 5 CTAs running
GPGPU-Sim uArch: core:  0, cta: 0 initialized @(4814,0)
GPGPU-Sim PTX: 3200000 instructions simulated : ctaid=(4,0,0) tid=(9,2,0)
GPGPU-Sim PTX: 3300000 instructions simulated : ctaid=(3,3,0) tid=(19,0,0)
GPGPU-Sim uArch: Shader 6 finished CTA #0 (4996,0), 5 CTAs running
GPGPU-Sim uArch: core:  6, cta: 0 initialized @(4997,0)
GPGPU-Sim uArch: Shader 14 finished CTA #0 (5021,0), 5 CTAs running
GPGPU-Sim uArch: core: 14, cta: 0 initialized @(5022,0)
GPGPU-Sim uArch: Shader 1 finished CTA #1 (5110,0), 5 CTAs running
GPGPU-Sim uArch: core:  1, cta: 1 initialized @(5111,0)
GPGPU-Sim PTX: 3400000 instructions simulated : ctaid=(6,3,0) tid=(28,7,0)
GPGPU-Sim PTX: 3500000 instructions simulated : ctaid=(2,1,0) tid=(27,1,0)
GPGPU-Sim PTX: 3600000 instructions simulated : ctaid=(3,3,0) tid=(28,5,0)
GPGPU-Sim uArch: cycles simulated: 5500  inst.: 3438724 (ipc=625.2) sim_rate=491246 (inst/sec) elapsed = 0:0:00:07 / Fri Jan 16 05:27:26 2015
GPGPU-Sim uArch: Shader 9 finished CTA #1 (5544,0), 5 CTAs running
GPGPU-Sim uArch: core:  9, cta: 1 initialized @(5545,0)
GPGPU-Sim PTX: 3700000 instructions simulated : ctaid=(4,4,0) tid=(17,4,0)
GPGPU-Sim PTX: 3800000 instructions simulated : ctaid=(3,0,0) tid=(26,7,0)
GPGPU-Sim PTX: 3900000 instructions simulated : ctaid=(4,1,0) tid=(2,7,0)
GPGPU-Sim PTX: 4000000 instructions simulated : ctaid=(1,2,0) tid=(11,3,0)
GPGPU-Sim uArch: Shader 8 finished CTA #1 (6140,0), 5 CTAs running
GPGPU-Sim uArch: core:  8, cta: 1 initialized @(6141,0)
GPGPU-Sim PTX: 4100000 instructions simulated : ctaid=(4,8,0) tid=(10,0,0)
GPGPU-Sim PTX: 4200000 instructions simulated : ctaid=(4,5,0) tid=(3,5,0)
GPGPU-Sim uArch: cycles simulated: 6500  inst.: 4009346 (ipc=616.8) sim_rate=501168 (inst/sec) elapsed = 0:0:00:08 / Fri Jan 16 05:27:27 2015
GPGPU-Sim uArch: Shader 0 finished CTA #1 (6537,0), 5 CTAs running
GPGPU-Sim uArch: core:  0, cta: 1 initialized @(6538,0)
GPGPU-Sim uArch: Shader 1 finished CTA #2 (6559,0), 5 CTAs running
GPGPU-Sim uArch: core:  1, cta: 2 initialized @(6560,0)
GPGPU-Sim PTX: 4300000 instructions simulated : ctaid=(4,4,0) tid=(27,7,0)
GPGPU-Sim uArch: Shader 7 finished CTA #1 (6627,0), 5 CTAs running
GPGPU-Sim uArch: core:  7, cta: 1 initialized @(6628,0)
GPGPU-Sim PTX: 4400000 instructions simulated : ctaid=(7,3,0) tid=(7,6,0)
GPGPU-Sim PTX: 4500000 instructions simulated : ctaid=(4,8,0) tid=(27,6,0)
GPGPU-Sim PTX: 4600000 instructions simulated : ctaid=(2,4,0) tid=(20,2,0)
GPGPU-Sim PTX: 4700000 instructions simulated : ctaid=(3,5,0) tid=(18,6,0)
GPGPU-Sim uArch: Shader 9 finished CTA #2 (7451,0), 5 CTAs running
GPGPU-Sim uArch: core:  9, cta: 2 initialized @(7452,0)
GPGPU-Sim uArch: cycles simulated: 7500  inst.: 4532434 (ipc=604.3) sim_rate=503603 (inst/sec) elapsed = 0:0:00:09 / Fri Jan 16 05:27:28 2015
GPGPU-Sim PTX: 4800000 instructions simulated : ctaid=(1,1,0) tid=(2,6,0)
GPGPU-Sim PTX: 4900000 instructions simulated : ctaid=(3,3,0) tid=(10,5,0)
GPGPU-Sim uArch: Shader 8 finished CTA #2 (7891,0), 5 CTAs running
GPGPU-Sim uArch: core:  8, cta: 2 initialized @(7892,0)
GPGPU-Sim PTX: 5000000 instructions simulated : ctaid=(3,7,0) tid=(23,2,0)
GPGPU-Sim uArch: cycles simulated: 8000  inst.: 4772642 (ipc=596.6) sim_rate=477264 (inst/sec) elapsed = 0:0:00:10 / Fri Jan 16 05:27:29 2015
GPGPU-Sim uArch: Shader 9 finished CTA #0 (8066,0), 5 CTAs running
GPGPU-Sim uArch: core:  9, cta: 0 initialized @(8067,0)
GPGPU-Sim PTX: 5100000 instructions simulated : ctaid=(4,8,0) tid=(24,5,0)
GPGPU-Sim PTX: 5200000 instructions simulated : ctaid=(2,1,0) tid=(29,3,0)
GPGPU-Sim PTX: 5300000 instructions simulated : ctaid=(7,4,0) tid=(7,0,0)
GPGPU-Sim uArch: Shader 1 finished CTA #3 (8612,0), 5 CTAs running
GPGPU-Sim uArch: core:  1, cta: 3 initialized @(8613,0)
GPGPU-Sim PTX: 5400000 instructions simulated : ctaid=(3,1,0) tid=(3,0,0)
GPGPU-Sim PTX: 5500000 instructions simulated : ctaid=(3,3,0) tid=(30,6,0)
GPGPU-Sim uArch: cycles simulated: 9000  inst.: 5218126 (ipc=579.8) sim_rate=474375 (inst/sec) elapsed = 0:0:00:11 / Fri Jan 16 05:27:30 2015
GPGPU-Sim PTX: 5600000 instructions simulated : ctaid=(3,0,0) tid=(13,4,0)
GPGPU-Sim PTX: 5700000 instructions simulated : ctaid=(3,10,0) tid=(3,2,0)
GPGPU-Sim PTX: 5800000 instructions simulated : ctaid=(3,0,0) tid=(11,7,0)
GPGPU-Sim PTX: 5900000 instructions simulated : ctaid=(4,8,0) tid=(7,6,0)
GPGPU-Sim uArch: cycles simulated: 10000  inst.: 5591460 (ipc=559.1) sim_rate=465955 (inst/sec) elapsed = 0:0:00:12 / Fri Jan 16 05:27:31 2015
GPGPU-Sim PTX: 6000000 instructions simulated : ctaid=(4,7,0) tid=(30,3,0)
GPGPU-Sim PTX: 6100000 instructions simulated : ctaid=(4,2,0) tid=(0,0,0)
GPGPU-Sim uArch: Shader 2 finished CTA #2 (10671,0), 5 CTAs running
GPGPU-Sim uArch: core:  2, cta: 2 initialized @(10672,0)
GPGPU-Sim PTX: 6200000 instructions simulated : ctaid=(4,7,0) tid=(13,5,0)
GPGPU-Sim PTX: 6300000 instructions simulated : ctaid=(3,7,0) tid=(15,7,0)
GPGPU-Sim uArch: cycles simulated: 11500  inst.: 6040643 (ipc=525.3) sim_rate=464664 (inst/sec) elapsed = 0:0:00:13 / Fri Jan 16 05:27:32 2015
GPGPU-Sim PTX: 6400000 instructions simulated : ctaid=(2,0,0) tid=(20,2,0)
GPGPU-Sim PTX: 6500000 instructions simulated : ctaid=(6,5,0) tid=(4,3,0)
GPGPU-Sim uArch: Shader 12 finished CTA #1 (12038,0), 5 CTAs running
GPGPU-Sim uArch: core: 12, cta: 1 initialized @(12039,0)
GPGPU-Sim PTX: 6600000 instructions simulated : ctaid=(2,8,0) tid=(24,2,0)
GPGPU-Sim uArch: cycles simulated: 12500  inst.: 6292157 (ipc=503.4) sim_rate=449439 (inst/sec) elapsed = 0:0:00:14 / Fri Jan 16 05:27:33 2015
GPGPU-Sim PTX: 6700000 instructions simulated : ctaid=(3,8,0) tid=(14,2,0)
GPGPU-Sim PTX: 6800000 instructions simulated : ctaid=(1,3,0) tid=(5,5,0)
GPGPU-Sim PTX: 6900000 instructions simulated : ctaid=(4,4,0) tid=(18,7,0)
GPGPU-Sim uArch: cycles simulated: 13500  inst.: 6520656 (ipc=483.0) sim_rate=434710 (inst/sec) elapsed = 0:0:00:15 / Fri Jan 16 05:27:34 2015
GPGPU-Sim uArch: Shader 2 finished CTA #3 (13836,0), 5 CTAs running
GPGPU-Sim uArch: core:  2, cta: 3 initialized @(13837,0)
GPGPU-Sim PTX: 7000000 instructions simulated : ctaid=(4,3,0) tid=(9,3,0)
GPGPU-Sim PTX: 7100000 instructions simulated : ctaid=(3,5,0) tid=(27,5,0)
GPGPU-Sim PTX: 7200000 instructions simulated : ctaid=(2,0,0) tid=(25,2,0)
GPGPU-Sim uArch: cycles simulated: 15000  inst.: 6846262 (ipc=456.4) sim_rate=427891 (inst/sec) elapsed = 0:0:00:16 / Fri Jan 16 05:27:35 2015
GPGPU-Sim PTX: 7300000 instructions simulated : ctaid=(3,7,0) tid=(18,1,0)
GPGPU-Sim PTX: 7400000 instructions simulated : ctaid=(7,4,0) tid=(28,6,0)
GPGPU-Sim uArch: cycles simulated: 16000  inst.: 7037834 (ipc=439.9) sim_rate=413990 (inst/sec) elapsed = 0:0:00:17 / Fri Jan 16 05:27:36 2015
GPGPU-Sim PTX: 7500000 instructions simulated : ctaid=(2,10,0) tid=(23,2,0)
GPGPU-Sim PTX: 7600000 instructions simulated : ctaid=(4,9,0) tid=(27,2,0)
GPGPU-Sim PTX: 7700000 instructions simulated : ctaid=(3,7,0) tid=(26,5,0)
GPGPU-Sim uArch: cycles simulated: 17500  inst.: 7345336 (ipc=419.7) sim_rate=408074 (inst/sec) elapsed = 0:0:00:18 / Fri Jan 16 05:27:37 2015
GPGPU-Sim PTX: 7800000 instructions simulated : ctaid=(3,10,0) tid=(12,0,0)
GPGPU-Sim PTX: 7900000 instructions simulated : ctaid=(4,9,0) tid=(21,1,0)
GPGPU-Sim PTX: 8000000 instructions simulated : ctaid=(0,5,0) tid=(30,4,0)
GPGPU-Sim uArch: cycles simulated: 18500  inst.: 7556625 (ipc=408.5) sim_rate=397717 (inst/sec) elapsed = 0:0:00:19 / Fri Jan 16 05:27:38 2015
GPGPU-Sim PTX: 8100000 instructions simulated : ctaid=(5,8,0) tid=(23,0,0)
GPGPU-Sim uArch: Shader 5 finished CTA #2 (19132,0), 5 CTAs running
GPGPU-Sim uArch: core:  5, cta: 2 initialized @(19133,0)
GPGPU-Sim PTX: 8200000 instructions simulated : ctaid=(2,10,0) tid=(21,2,0)
GPGPU-Sim uArch: cycles simulated: 19500  inst.: 7785965 (ipc=399.3) sim_rate=389298 (inst/sec) elapsed = 0:0:00:20 / Fri Jan 16 05:27:39 2015
GPGPU-Sim PTX: 8300000 instructions simulated : ctaid=(7,4,0) tid=(12,5,0)
GPGPU-Sim PTX: 8400000 instructions simulated : ctaid=(4,11,0) tid=(19,0,0)
GPGPU-Sim PTX: 8500000 instructions simulated : ctaid=(1,11,0) tid=(5,2,0)
GPGPU-Sim PTX: 8600000 instructions simulated : ctaid=(7,4,0) tid=(1,5,0)
GPGPU-Sim uArch: cycles simulated: 21000  inst.: 8170068 (ipc=389.1) sim_rate=389050 (inst/sec) elapsed = 0:0:00:21 / Fri Jan 16 05:27:40 2015
GPGPU-Sim PTX: 8700000 instructions simulated : ctaid=(1,10,0) tid=(14,4,0)
GPGPU-Sim PTX: 8800000 instructions simulated : ctaid=(1,8,0) tid=(22,3,0)
GPGPU-Sim PTX: 8900000 instructions simulated : ctaid=(0,6,0) tid=(12,6,0)
GPGPU-Sim uArch: Shader 14 finished CTA #3 (21898,0), 5 CTAs running
GPGPU-Sim uArch: core: 14, cta: 3 initialized @(21899,0)
GPGPU-Sim uArch: cycles simulated: 22000  inst.: 8433769 (ipc=383.4) sim_rate=383353 (inst/sec) elapsed = 0:0:00:22 / Fri Jan 16 05:27:41 2015
GPGPU-Sim uArch: Shader 6 finished CTA #3 (22100,0), 5 CTAs running
GPGPU-Sim uArch: core:  6, cta: 3 initialized @(22101,0)
GPGPU-Sim PTX: 9000000 instructions simulated : ctaid=(1,8,0) tid=(3,4,0)
GPGPU-Sim uArch: Shader 9 finished CTA #3 (22322,0), 5 CTAs running
GPGPU-Sim uArch: core:  9, cta: 3 initialized @(22323,0)
GPGPU-Sim uArch: Shader 6 finished CTA #1 (22443,0), 5 CTAs running
GPGPU-Sim uArch: core:  6, cta: 1 initialized @(22444,0)
GPGPU-Sim PTX: 9100000 instructions simulated : ctaid=(1,11,0) tid=(12,4,0)
GPGPU-Sim uArch: Shader 10 finished CTA #2 (22523,0), 5 CTAs running
GPGPU-Sim uArch: core: 10, cta: 2 initialized @(22524,0)
GPGPU-Sim uArch: Shader 14 finished CTA #2 (22666,0), 5 CTAs running
GPGPU-Sim uArch: core: 14, cta: 2 initialized @(22667,0)
GPGPU-Sim PTX: 9200000 instructions simulated : ctaid=(1,9,0) tid=(15,1,0)
GPGPU-Sim uArch: cycles simulated: 23000  inst.: 8719509 (ipc=379.1) sim_rate=379109 (inst/sec) elapsed = 0:0:00:23 / Fri Jan 16 05:27:42 2015
GPGPU-Sim PTX: 9300000 instructions simulated : ctaid=(5,11,0) tid=(23,0,0)
GPGPU-Sim uArch: Shader 2 finished CTA #1 (23349,0), 5 CTAs running
GPGPU-Sim uArch: core:  2, cta: 1 initialized @(23350,0)
GPGPU-Sim PTX: 9400000 instructions simulated : ctaid=(4,8,0) tid=(1,7,0)
GPGPU-Sim PTX: 9500000 instructions simulated : ctaid=(1,11,0) tid=(28,4,0)
GPGPU-Sim uArch: cycles simulated: 24000  inst.: 9001315 (ipc=375.1) sim_rate=375054 (inst/sec) elapsed = 0:0:00:24 / Fri Jan 16 05:27:43 2015
GPGPU-Sim PTX: 9600000 instructions simulated : ctaid=(6,6,0) tid=(20,5,0)
GPGPU-Sim PTX: 9700000 instructions simulated : ctaid=(0,10,0) tid=(17,0,0)
GPGPU-Sim uArch: Shader 0 finished CTA #2 (24763,0), 5 CTAs running
GPGPU-Sim uArch: core:  0, cta: 2 initialized @(24764,0)
GPGPU-Sim PTX: 9800000 instructions simulated : ctaid=(7,6,0) tid=(22,2,0)
GPGPU-Sim uArch: Shader 2 finished CTA #0 (24890,0), 5 CTAs running
GPGPU-Sim uArch: core:  2, cta: 0 initialized @(24891,0)
GPGPU-Sim uArch: Shader 14 finished CTA #1 (24956,0), 5 CTAs running
GPGPU-Sim uArch: core: 14, cta: 1 initialized @(24957,0)
GPGPU-Sim uArch: cycles simulated: 25000  inst.: 9277242 (ipc=371.1) sim_rate=371089 (inst/sec) elapsed = 0:0:00:25 / Fri Jan 16 05:27:44 2015
GPGPU-Sim uArch: Shader 10 finished CTA #3 (25147,0), 5 CTAs running
GPGPU-Sim uArch: core: 10, cta: 3 initialized @(25148,0)
GPGPU-Sim PTX: 9900000 instructions simulated : ctaid=(5,11,0) tid=(11,6,0)
GPGPU-Sim PTX: 10000000 instructions simulated : ctaid=(5,8,0) tid=(24,1,0)
GPGPU-Sim PTX: 10100000 instructions simulated : ctaid=(3,10,0) tid=(12,5,0)
GPGPU-Sim PTX: 10200000 instructions simulated : ctaid=(1,10,0) tid=(31,6,0)
GPGPU-Sim uArch: Shader 10 finished CTA #0 (26335,0), 5 CTAs running
GPGPU-Sim uArch: core: 10, cta: 0 initialized @(26336,0)
GPGPU-Sim PTX: 10300000 instructions simulated : ctaid=(4,11,0) tid=(30,2,0)
GPGPU-Sim uArch: cycles simulated: 26500  inst.: 9715291 (ipc=366.6) sim_rate=373665 (inst/sec) elapsed = 0:0:00:26 / Fri Jan 16 05:27:45 2015
GPGPU-Sim uArch: Shader 7 finished CTA #4 (26570,0), 5 CTAs running
GPGPU-Sim uArch: core:  7, cta: 4 initialized @(26571,0)
GPGPU-Sim PTX: 10400000 instructions simulated : ctaid=(6,10,0) tid=(0,2,0)
GPGPU-Sim PTX: 10500000 instructions simulated : ctaid=(7,6,0) tid=(18,6,0)
GPGPU-Sim uArch: Shader 0 finished CTA #4 (27358,0), 5 CTAs running
GPGPU-Sim uArch: core:  0, cta: 4 initialized @(27359,0)
GPGPU-Sim PTX: 10600000 instructions simulated : ctaid=(3,11,0) tid=(19,6,0)
GPGPU-Sim uArch: cycles simulated: 27500  inst.: 10006660 (ipc=363.9) sim_rate=370617 (inst/sec) elapsed = 0:0:00:27 / Fri Jan 16 05:27:46 2015
GPGPU-Sim PTX: 10700000 instructions simulated : ctaid=(7,11,0) tid=(6,0,0)
GPGPU-Sim PTX: 10800000 instructions simulated : ctaid=(0,10,0) tid=(27,5,0)
GPGPU-Sim uArch: Shader 7 finished CTA #3 (28333,0), 5 CTAs running
GPGPU-Sim uArch: core:  7, cta: 3 initialized @(28334,0)
GPGPU-Sim PTX: 10900000 instructions simulated : ctaid=(4,9,0) tid=(1,1,0)
GPGPU-Sim uArch: Shader 12 finished CTA #0 (28426,0), 5 CTAs running
GPGPU-Sim uArch: core: 12, cta: 0 initialized @(28427,0)
GPGPU-Sim uArch: cycles simulated: 28500  inst.: 10309748 (ipc=361.7) sim_rate=368205 (inst/sec) elapsed = 0:0:00:28 / Fri Jan 16 05:27:47 2015
GPGPU-Sim PTX: 11000000 instructions simulated : ctaid=(0,8,0) tid=(11,4,0)
GPGPU-Sim uArch: Shader 13 finished CTA #2 (28868,0), 5 CTAs running
GPGPU-Sim uArch: core: 13, cta: 2 initialized @(28869,0)
GPGPU-Sim PTX: 11100000 instructions simulated : ctaid=(6,11,0) tid=(1,0,0)
GPGPU-Sim PTX: 11200000 instructions simulated : ctaid=(1,11,0) tid=(16,3,0)
GPGPU-Sim uArch: Shader 3 finished CTA #0 (29404,0), 5 CTAs running
GPGPU-Sim uArch: core:  3, cta: 0 initialized @(29405,0)
GPGPU-Sim uArch: cycles simulated: 29500  inst.: 10605042 (ipc=359.5) sim_rate=365691 (inst/sec) elapsed = 0:0:00:29 / Fri Jan 16 05:27:48 2015
GPGPU-Sim PTX: 11300000 instructions simulated : ctaid=(0,10,0) tid=(23,4,0)
GPGPU-Sim uArch: Shader 11 finished CTA #0 (29903,0), 5 CTAs running
GPGPU-Sim uArch: core: 11, cta: 0 initialized @(29904,0)
GPGPU-Sim PTX: 11400000 instructions simulated : ctaid=(3,11,0) tid=(16,4,0)
GPGPU-Sim PTX: 11500000 instructions simulated : ctaid=(3,9,0) tid=(10,5,0)
GPGPU-Sim uArch: Shader 8 finished CTA #3 (30451,0), 5 CTAs running
GPGPU-Sim uArch: core:  8, cta: 3 initialized @(30452,0)
GPGPU-Sim uArch: cycles simulated: 30500  inst.: 10895774 (ipc=357.2) sim_rate=363192 (inst/sec) elapsed = 0:0:00:30 / Fri Jan 16 05:27:49 2015
GPGPU-Sim PTX: 11600000 instructions simulated : ctaid=(1,10,0) tid=(3,3,0)
GPGPU-Sim PTX: 11700000 instructions simulated : ctaid=(3,0,0) tid=(3,2,0)
GPGPU-Sim PTX: 11800000 instructions simulated : ctaid=(3,11,0) tid=(1,4,0)
GPGPU-Sim PTX: 11900000 instructions simulated : ctaid=(1,12,0) tid=(27,2,0)
GPGPU-Sim PTX: 12000000 instructions simulated : ctaid=(3,10,0) tid=(12,7,0)
GPGPU-Sim uArch: cycles simulated: 32000  inst.: 11348489 (ipc=354.6) sim_rate=366080 (inst/sec) elapsed = 0:0:00:31 / Fri Jan 16 05:27:50 2015
GPGPU-Sim PTX: 12100000 instructions simulated : ctaid=(5,12,0) tid=(6,0,0)
GPGPU-Sim uArch: Shader 3 finished CTA #1 (32422,0), 5 CTAs running
GPGPU-Sim uArch: core:  3, cta: 1 initialized @(32423,0)
GPGPU-Sim PTX: 12200000 instructions simulated : ctaid=(6,10,0) tid=(23,4,0)
GPGPU-Sim uArch: Shader 4 finished CTA #0 (32505,0), 5 CTAs running
GPGPU-Sim uArch: core:  4, cta: 0 initialized @(32506,0)
GPGPU-Sim uArch: Shader 6 finished CTA #2 (32751,0), 5 CTAs running
GPGPU-Sim uArch: core:  6, cta: 2 initialized @(32752,0)
GPGPU-Sim PTX: 12300000 instructions simulated : ctaid=(5,8,0) tid=(8,7,0)
GPGPU-Sim uArch: cycles simulated: 33000  inst.: 11654024 (ipc=353.2) sim_rate=364188 (inst/sec) elapsed = 0:0:00:32 / Fri Jan 16 05:27:51 2015
GPGPU-Sim uArch: Shader 5 finished CTA #3 (33014,0), 5 CTAs running
GPGPU-Sim uArch: core:  5, cta: 3 initialized @(33015,0)
GPGPU-Sim PTX: 12400000 instructions simulated : ctaid=(6,10,0) tid=(11,6,0)
GPGPU-Sim PTX: 12500000 instructions simulated : ctaid=(4,9,0) tid=(11,7,0)
GPGPU-Sim PTX: 12600000 instructions simulated : ctaid=(2,10,0) tid=(18,7,0)
GPGPU-Sim uArch: Shader 5 finished CTA #0 (33910,0), 5 CTAs running
GPGPU-Sim uArch: core:  5, cta: 0 initialized @(33911,0)
GPGPU-Sim PTX: 12700000 instructions simulated : ctaid=(4,10,0) tid=(28,6,0)
GPGPU-Sim uArch: cycles simulated: 34000  inst.: 11963102 (ipc=351.9) sim_rate=362518 (inst/sec) elapsed = 0:0:00:33 / Fri Jan 16 05:27:52 2015
GPGPU-Sim PTX: 12800000 instructions simulated : ctaid=(4,10,0) tid=(15,5,0)
GPGPU-Sim PTX: 12900000 instructions simulated : ctaid=(2,11,0) tid=(16,1,0)
GPGPU-Sim uArch: Shader 13 finished CTA #0 (34926,0), 5 CTAs running
GPGPU-Sim uArch: core: 13, cta: 0 initialized @(34927,0)
GPGPU-Sim PTX: 13000000 instructions simulated : ctaid=(3,10,0) tid=(23,4,0)
GPGPU-Sim uArch: cycles simulated: 35000  inst.: 12266260 (ipc=350.5) sim_rate=360772 (inst/sec) elapsed = 0:0:00:34 / Fri Jan 16 05:27:53 2015
GPGPU-Sim PTX: 13100000 instructions simulated : ctaid=(6,13,0) tid=(7,0,0)
GPGPU-Sim PTX: 13200000 instructions simulated : ctaid=(7,9,0) tid=(12,5,0)
GPGPU-Sim uArch: Shader 12 finished CTA #2 (35608,0), 5 CTAs running
GPGPU-Sim uArch: core: 12, cta: 2 initialized @(35609,0)
GPGPU-Sim uArch: Shader 3 finished CTA #3 (35661,0), 5 CTAs running
GPGPU-Sim uArch: core:  3, cta: 3 initialized @(35662,0)
GPGPU-Sim PTX: 13300000 instructions simulated : ctaid=(0,7,0) tid=(13,1,0)
GPGPU-Sim uArch: cycles simulated: 36000  inst.: 12543981 (ipc=348.4) sim_rate=358399 (inst/sec) elapsed = 0:0:00:35 / Fri Jan 16 05:27:54 2015
GPGPU-Sim uArch: Shader 7 finished CTA #2 (36162,0), 5 CTAs running
GPGPU-Sim uArch: core:  7, cta: 2 initialized @(36163,0)
GPGPU-Sim PTX: 13400000 instructions simulated : ctaid=(5,10,0) tid=(0,4,0)
GPGPU-Sim PTX: 13500000 instructions simulated : ctaid=(3,11,0) tid=(4,3,0)
GPGPU-Sim uArch: Shader 1 finished CTA #4 (36838,0), 5 CTAs running
GPGPU-Sim uArch: core:  1, cta: 4 initialized @(36839,0)
GPGPU-Sim PTX: 13600000 instructions simulated : ctaid=(2,12,0) tid=(18,0,0)
GPGPU-Sim uArch: cycles simulated: 37000  inst.: 12822911 (ipc=346.6) sim_rate=356191 (inst/sec) elapsed = 0:0:00:36 / Fri Jan 16 05:27:55 2015
GPGPU-Sim uArch: Shader 5 finished CTA #1 (37016,0), 5 CTAs running
GPGPU-Sim uArch: core:  5, cta: 1 initialized @(37017,0)
GPGPU-Sim uArch: Shader 11 finished CTA #1 (37135,0), 5 CTAs running
GPGPU-Sim uArch: core: 11, cta: 1 initialized @(37136,0)
GPGPU-Sim PTX: 13700000 instructions simulated : ctaid=(0,10,0) tid=(20,0,0)
GPGPU-Sim PTX: 13800000 instructions simulated : ctaid=(2,15,0) tid=(15,0,0)
GPGPU-Sim PTX: 13900000 instructions simulated : ctaid=(6,11,0) tid=(2,0,0)
GPGPU-Sim uArch: Shader 0 finished CTA #3 (38006,0), 5 CTAs running
GPGPU-Sim uArch: core:  0, cta: 3 initialized @(38007,0)
GPGPU-Sim PTX: 14000000 instructions simulated : ctaid=(6,11,0) tid=(24,4,0)
GPGPU-Sim uArch: cycles simulated: 38500  inst.: 13227126 (ipc=343.6) sim_rate=357489 (inst/sec) elapsed = 0:0:00:37 / Fri Jan 16 05:27:56 2015
GPGPU-Sim uArch: Shader 2 finished CTA #4 (38623,0), 5 CTAs running
GPGPU-Sim uArch: core:  2, cta: 4 initialized @(38624,0)
GPGPU-Sim PTX: 14100000 instructions simulated : ctaid=(7,13,0) tid=(6,0,0)
GPGPU-Sim PTX: 14200000 instructions simulated : ctaid=(0,5,0) tid=(9,5,0)
GPGPU-Sim PTX: 14300000 instructions simulated : ctaid=(5,8,0) tid=(9,1,0)
GPGPU-Sim uArch: cycles simulated: 39500  inst.: 13489958 (ipc=341.5) sim_rate=354998 (inst/sec) elapsed = 0:0:00:38 / Fri Jan 16 05:27:57 2015
GPGPU-Sim uArch: Shader 3 finished CTA #4 (39510,0), 5 CTAs running
GPGPU-Sim uArch: core:  3, cta: 4 initialized @(39511,0)
GPGPU-Sim uArch: Shader 10 finished CTA #1 (39643,0), 5 CTAs running
GPGPU-Sim uArch: core: 10, cta: 1 initialized @(39644,0)
GPGPU-Sim PTX: 14400000 instructions simulated : ctaid=(6,13,0) tid=(14,2,0)
GPGPU-Sim uArch: Shader 14 finished CTA #5 (39923,0), 5 CTAs running
GPGPU-Sim uArch: core: 14, cta: 5 initialized @(39924,0)
GPGPU-Sim PTX: 14500000 instructions simulated : ctaid=(4,13,0) tid=(21,4,0)
GPGPU-Sim uArch: Shader 4 finished CTA #1 (40297,0), 5 CTAs running
GPGPU-Sim uArch: core:  4, cta: 1 initialized @(40298,0)
GPGPU-Sim PTX: 14600000 instructions simulated : ctaid=(4,14,0) tid=(15,2,0)
GPGPU-Sim uArch: cycles simulated: 40500  inst.: 13784226 (ipc=340.4) sim_rate=353441 (inst/sec) elapsed = 0:0:00:39 / Fri Jan 16 05:27:58 2015
GPGPU-Sim PTX: 14700000 instructions simulated : ctaid=(7,15,0) tid=(20,5,0)
GPGPU-Sim PTX: 14800000 instructions simulated : ctaid=(7,10,0) tid=(9,2,0)
GPGPU-Sim PTX: 14900000 instructions simulated : ctaid=(5,13,0) tid=(11,0,0)
GPGPU-Sim uArch: cycles simulated: 41500  inst.: 14103379 (ipc=339.8) sim_rate=352584 (inst/sec) elapsed = 0:0:00:40 / Fri Jan 16 05:27:59 2015
GPGPU-Sim uArch: Shader 8 finished CTA #4 (41500,0), 5 CTAs running
GPGPU-Sim uArch: core:  8, cta: 4 initialized @(41501,0)
GPGPU-Sim PTX: 15000000 instructions simulated : ctaid=(6,10,0) tid=(13,2,0)
GPGPU-Sim uArch: Shader 9 finished CTA #4 (41716,0), 5 CTAs running
GPGPU-Sim uArch: core:  9, cta: 4 initialized @(41717,0)
GPGPU-Sim PTX: 15100000 instructions simulated : ctaid=(6,11,0) tid=(3,0,0)
GPGPU-Sim PTX: 15200000 instructions simulated : ctaid=(2,13,0) tid=(1,5,0)
GPGPU-Sim uArch: Shader 13 finished CTA #1 (42421,0), 5 CTAs running
GPGPU-Sim uArch: core: 13, cta: 1 initialized @(42422,0)
GPGPU-Sim PTX: 15300000 instructions simulated : ctaid=(0,9,0) tid=(12,7,0)
GPGPU-Sim uArch: cycles simulated: 42500  inst.: 14433361 (ipc=339.6) sim_rate=352033 (inst/sec) elapsed = 0:0:00:41 / Fri Jan 16 05:28:00 2015
GPGPU-Sim PTX: 15400000 instructions simulated : ctaid=(1,4,0) tid=(0,1,0)
GPGPU-Sim uArch: Shader 4 finished CTA #2 (42923,0), 5 CTAs running
GPGPU-Sim uArch: core:  4, cta: 2 initialized @(42924,0)
GPGPU-Sim PTX: 15500000 instructions simulated : ctaid=(0,13,0) tid=(8,0,0)
GPGPU-Sim uArch: Shader 11 finished CTA #4 (43150,0), 5 CTAs running
GPGPU-Sim uArch: core: 11, cta: 4 initialized @(43151,0)
GPGPU-Sim PTX: 15600000 instructions simulated : ctaid=(3,12,0) tid=(9,6,0)
GPGPU-Sim uArch: Shader 11 finished CTA #3 (43391,0), 5 CTAs running
GPGPU-Sim uArch: core: 11, cta: 3 initialized @(43392,0)
GPGPU-Sim uArch: cycles simulated: 43500  inst.: 14766595 (ipc=339.5) sim_rate=351585 (inst/sec) elapsed = 0:0:00:42 / Fri Jan 16 05:28:01 2015
GPGPU-Sim PTX: 15700000 instructions simulated : ctaid=(4,13,0) tid=(22,1,0)
GPGPU-Sim PTX: 15800000 instructions simulated : ctaid=(6,11,0) tid=(12,6,0)
GPGPU-Sim PTX: 15900000 instructions simulated : ctaid=(5,10,0) tid=(12,6,0)
GPGPU-Sim PTX: 16000000 instructions simulated : ctaid=(7,10,0) tid=(0,0,0)
GPGPU-Sim uArch: cycles simulated: 44500  inst.: 15102846 (ipc=339.4) sim_rate=351228 (inst/sec) elapsed = 0:0:00:43 / Fri Jan 16 05:28:02 2015
GPGPU-Sim PTX: 16100000 instructions simulated : ctaid=(1,12,0) tid=(17,5,0)
GPGPU-Sim PTX: 16200000 instructions simulated : ctaid=(7,15,0) tid=(25,2,0)
GPGPU-Sim PTX: 16300000 instructions simulated : ctaid=(4,13,0) tid=(5,2,0)
GPGPU-Sim uArch: cycles simulated: 45500  inst.: 15431611 (ipc=339.2) sim_rate=350718 (inst/sec) elapsed = 0:0:00:44 / Fri Jan 16 05:28:03 2015
GPGPU-Sim PTX: 16400000 instructions simulated : ctaid=(2,12,0) tid=(3,6,0)
GPGPU-Sim uArch: Shader 12 finished CTA #3 (45695,0), 5 CTAs running
GPGPU-Sim uArch: core: 12, cta: 3 initialized @(45696,0)
GPGPU-Sim PTX: 16500000 instructions simulated : ctaid=(7,13,0) tid=(5,0,0)
GPGPU-Sim PTX: 16600000 instructions simulated : ctaid=(6,11,0) tid=(18,3,0)
GPGPU-Sim uArch: Shader 7 finished CTA #5 (46233,0), 5 CTAs running
GPGPU-Sim uArch: core:  7, cta: 5 initialized @(46234,0)
GPGPU-Sim PTX: 16700000 instructions simulated : ctaid=(2,16,0) tid=(13,0,0)
GPGPU-Sim uArch: cycles simulated: 46500  inst.: 15749782 (ipc=338.7) sim_rate=349995 (inst/sec) elapsed = 0:0:00:45 / Fri Jan 16 05:28:04 2015
GPGPU-Sim PTX: 16800000 instructions simulated : ctaid=(7,15,0) tid=(29,6,0)
GPGPU-Sim PTX: 16900000 instructions simulated : ctaid=(7,10,0) tid=(19,1,0)
GPGPU-Sim PTX: 17000000 instructions simulated : ctaid=(6,10,0) tid=(14,2,0)
GPGPU-Sim PTX: 17100000 instructions simulated : ctaid=(6,10,0) tid=(3,5,0)
GPGPU-Sim PTX: 17200000 instructions simulated : ctaid=(2,14,0) tid=(18,6,0)
GPGPU-Sim uArch: cycles simulated: 48000  inst.: 16197686 (ipc=337.5) sim_rate=352123 (inst/sec) elapsed = 0:0:00:46 / Fri Jan 16 05:28:05 2015
GPGPU-Sim uArch: Shader 9 finished CTA #5 (48039,0), 5 CTAs running
GPGPU-Sim uArch: core:  9, cta: 5 initialized @(48040,0)
GPGPU-Sim PTX: 17300000 instructions simulated : ctaid=(2,15,0) tid=(30,3,0)
GPGPU-Sim PTX: 17400000 instructions simulated : ctaid=(3,12,0) tid=(24,6,0)
GPGPU-Sim PTX: 17500000 instructions simulated : ctaid=(5,17,0) tid=(6,4,0)
GPGPU-Sim uArch: cycles simulated: 49000  inst.: 16489617 (ipc=336.5) sim_rate=350842 (inst/sec) elapsed = 0:0:00:47 / Fri Jan 16 05:28:06 2015
GPGPU-Sim PTX: 17600000 instructions simulated : ctaid=(0,12,0) tid=(6,3,0)
GPGPU-Sim uArch: Shader 4 finished CTA #4 (49286,0), 5 CTAs running
GPGPU-Sim uArch: core:  4, cta: 4 initialized @(49287,0)
GPGPU-Sim PTX: 17700000 instructions simulated : ctaid=(6,13,0) tid=(6,0,0)
GPGPU-Sim PTX: 17800000 instructions simulated : ctaid=(0,9,0) tid=(23,7,0)
GPGPU-Sim uArch: cycles simulated: 50000  inst.: 16785700 (ipc=335.7) sim_rate=349702 (inst/sec) elapsed = 0:0:00:48 / Fri Jan 16 05:28:07 2015
GPGPU-Sim PTX: 17900000 instructions simulated : ctaid=(7,13,0) tid=(31,0,0)
GPGPU-Sim uArch: Shader 13 finished CTA #3 (50279,0), 5 CTAs running
GPGPU-Sim uArch: core: 13, cta: 3 initialized @(50280,0)
GPGPU-Sim uArch: Shader 11 finished CTA #2 (50420,0), 5 CTAs running
GPGPU-Sim uArch: core: 11, cta: 2 initialized @(50421,0)
GPGPU-Sim PTX: 18000000 instructions simulated : ctaid=(0,16,0) tid=(16,5,0)
GPGPU-Sim PTX: 18100000 instructions simulated : ctaid=(6,14,0) tid=(20,0,0)
GPGPU-Sim uArch: cycles simulated: 51000  inst.: 17084291 (ipc=335.0) sim_rate=348659 (inst/sec) elapsed = 0:0:00:49 / Fri Jan 16 05:28:08 2015
GPGPU-Sim uArch: Shader 6 finished CTA #4 (51126,0), 5 CTAs running
GPGPU-Sim uArch: core:  6, cta: 4 initialized @(51127,0)
GPGPU-Sim PTX: 18200000 instructions simulated : ctaid=(0,9,0) tid=(21,6,0)
GPGPU-Sim PTX: 18300000 instructions simulated : ctaid=(2,12,0) tid=(27,1,0)
GPGPU-Sim PTX: 18400000 instructions simulated : ctaid=(5,17,0) tid=(21,5,0)
GPGPU-Sim uArch: cycles simulated: 52000  inst.: 17377196 (ipc=334.2) sim_rate=347543 (inst/sec) elapsed = 0:0:00:50 / Fri Jan 16 05:28:09 2015
GPGPU-Sim PTX: 18500000 instructions simulated : ctaid=(4,12,0) tid=(9,2,0)
GPGPU-Sim PTX: 18600000 instructions simulated : ctaid=(7,11,0) tid=(2,6,0)
GPGPU-Sim PTX: 18700000 instructions simulated : ctaid=(3,16,0) tid=(30,1,0)
GPGPU-Sim uArch: cycles simulated: 53000  inst.: 17673888 (ipc=333.5) sim_rate=346546 (inst/sec) elapsed = 0:0:00:51 / Fri Jan 16 05:28:10 2015
GPGPU-Sim PTX: 18800000 instructions simulated : ctaid=(7,9,0) tid=(9,5,0)
GPGPU-Sim uArch: Shader 0 finished CTA #5 (53311,0), 5 CTAs running
GPGPU-Sim uArch: core:  0, cta: 5 initialized @(53312,0)
GPGPU-Sim PTX: 18900000 instructions simulated : ctaid=(3,16,0) tid=(22,7,0)
GPGPU-Sim uArch: Shader 3 finished CTA #2 (53559,0), 5 CTAs running
GPGPU-Sim uArch: core:  3, cta: 2 initialized @(53560,0)
GPGPU-Sim PTX: 19000000 instructions simulated : ctaid=(0,16,0) tid=(9,1,0)
GPGPU-Sim PTX: 19100000 instructions simulated : ctaid=(7,18,0) tid=(1,0,0)
GPGPU-Sim uArch: cycles simulated: 54000  inst.: 17980864 (ipc=333.0) sim_rate=345785 (inst/sec) elapsed = 0:0:00:52 / Fri Jan 16 05:28:11 2015
GPGPU-Sim uArch: Shader 6 finished CTA #5 (54120,0), 5 CTAs running
GPGPU-Sim uArch: core:  6, cta: 5 initialized @(54121,0)
GPGPU-Sim PTX: 19200000 instructions simulated : ctaid=(6,12,0) tid=(12,1,0)
GPGPU-Sim uArch: Shader 12 finished CTA #4 (54503,0), 5 CTAs running
GPGPU-Sim uArch: core: 12, cta: 4 initialized @(54504,0)
GPGPU-Sim PTX: 19300000 instructions simulated : ctaid=(6,14,0) tid=(11,2,0)
GPGPU-Sim uArch: Shader 10 finished CTA #4 (54678,0), 5 CTAs running
GPGPU-Sim uArch: core: 10, cta: 4 initialized @(54679,0)
GPGPU-Sim PTX: 19400000 instructions simulated : ctaid=(6,15,0) tid=(28,2,0)
GPGPU-Sim uArch: cycles simulated: 55000  inst.: 18294923 (ipc=332.6) sim_rate=345187 (inst/sec) elapsed = 0:0:00:53 / Fri Jan 16 05:28:12 2015
GPGPU-Sim PTX: 19500000 instructions simulated : ctaid=(3,16,0) tid=(1,1,0)
GPGPU-Sim PTX: 19600000 instructions simulated : ctaid=(6,14,0) tid=(8,2,0)
GPGPU-Sim PTX: 19700000 instructions simulated : ctaid=(5,15,0) tid=(19,2,0)
GPGPU-Sim uArch: cycles simulated: 56000  inst.: 18592357 (ipc=332.0) sim_rate=344302 (inst/sec) elapsed = 0:0:00:54 / Fri Jan 16 05:28:13 2015
GPGPU-Sim uArch: Shader 5 finished CTA #4 (56061,0), 5 CTAs running
GPGPU-Sim uArch: core:  5, cta: 4 initialized @(56062,0)
GPGPU-Sim PTX: 19800000 instructions simulated : ctaid=(4,14,0) tid=(6,4,0)
GPGPU-Sim uArch: Shader 14 finished CTA #4 (56384,0), 5 CTAs running
GPGPU-Sim uArch: core: 14, cta: 4 initialized @(56385,0)
GPGPU-Sim uArch: Shader 8 finished CTA #5 (56385,0), 5 CTAs running
GPGPU-Sim uArch: core:  8, cta: 5 initialized @(56386,0)
GPGPU-Sim PTX: 19900000 instructions simulated : ctaid=(7,17,0) tid=(20,2,0)
GPGPU-Sim PTX: 20000000 instructions simulated : ctaid=(7,10,0) tid=(27,7,0)
GPGPU-Sim uArch: cycles simulated: 57000  inst.: 18892026 (ipc=331.4) sim_rate=343491 (inst/sec) elapsed = 0:0:00:55 / Fri Jan 16 05:28:14 2015
GPGPU-Sim PTX: 20100000 instructions simulated : ctaid=(2,15,0) tid=(11,1,0)
GPGPU-Sim PTX: 20200000 instructions simulated : ctaid=(7,10,0) tid=(27,7,0)
GPGPU-Sim PTX: 20300000 instructions simulated : ctaid=(7,13,0) tid=(22,6,0)
GPGPU-Sim uArch: Shader 2 finished CTA #5 (57752,0), 5 CTAs running
GPGPU-Sim uArch: core:  2, cta: 5 initialized @(57753,0)
GPGPU-Sim PTX: 20400000 instructions simulated : ctaid=(0,15,0) tid=(2,1,0)
GPGPU-Sim PTX: 20500000 instructions simulated : ctaid=(0,15,0) tid=(1,0,0)
GPGPU-Sim uArch: Shader 1 finished CTA #5 (58347,0), 5 CTAs running
GPGPU-Sim uArch: core:  1, cta: 5 initialized @(58348,0)
GPGPU-Sim uArch: cycles simulated: 58500  inst.: 19350632 (ipc=330.8) sim_rate=345547 (inst/sec) elapsed = 0:0:00:56 / Fri Jan 16 05:28:15 2015
GPGPU-Sim PTX: 20600000 instructions simulated : ctaid=(2,15,0) tid=(28,1,0)
GPGPU-Sim PTX: 20700000 instructions simulated : ctaid=(6,14,0) tid=(29,4,0)
GPGPU-Sim PTX: 20800000 instructions simulated : ctaid=(4,12,0) tid=(1,0,0)
GPGPU-Sim uArch: cycles simulated: 59500  inst.: 19633614 (ipc=330.0) sim_rate=344449 (inst/sec) elapsed = 0:0:00:57 / Fri Jan 16 05:28:16 2015
GPGPU-Sim PTX: 20900000 instructions simulated : ctaid=(7,13,0) tid=(13,6,0)
GPGPU-Sim uArch: Shader 2 finished CTA #2 (59776,0), 5 CTAs running
GPGPU-Sim uArch: core:  2, cta: 2 initialized @(59777,0)
GPGPU-Sim PTX: 21000000 instructions simulated : ctaid=(7,18,0) tid=(31,6,0)
GPGPU-Sim PTX: 21100000 instructions simulated : ctaid=(7,12,0) tid=(0,0,0)
GPGPU-Sim uArch: cycles simulated: 60500  inst.: 19928522 (ipc=329.4) sim_rate=343595 (inst/sec) elapsed = 0:0:00:58 / Fri Jan 16 05:28:17 2015
GPGPU-Sim PTX: 21200000 instructions simulated : ctaid=(6,12,0) tid=(13,6,0)
GPGPU-Sim uArch: Shader 0 finished CTA #0 (60659,0), 5 CTAs running
GPGPU-Sim uArch: core:  0, cta: 0 initialized @(60660,0)
GPGPU-Sim PTX: 21300000 instructions simulated : ctaid=(4,14,0) tid=(28,7,0)
GPGPU-Sim PTX: 21400000 instructions simulated : ctaid=(4,12,0) tid=(21,3,0)
GPGPU-Sim uArch: cycles simulated: 61500  inst.: 20230966 (ipc=329.0) sim_rate=342897 (inst/sec) elapsed = 0:0:00:59 / Fri Jan 16 05:28:18 2015
GPGPU-Sim PTX: 21500000 instructions simulated : ctaid=(3,16,0) tid=(18,7,0)
GPGPU-Sim PTX: 21600000 instructions simulated : ctaid=(6,17,0) tid=(24,0,0)
GPGPU-Sim PTX: 21700000 instructions simulated : ctaid=(6,16,0) tid=(4,0,0)
GPGPU-Sim PTX: 21800000 instructions simulated : ctaid=(7,18,0) tid=(7,6,0)
GPGPU-Sim uArch: cycles simulated: 62500  inst.: 20530330 (ipc=328.5) sim_rate=342172 (inst/sec) elapsed = 0:0:01:00 / Fri Jan 16 05:28:19 2015
GPGPU-Sim PTX: 21900000 instructions simulated : ctaid=(4,15,0) tid=(1,2,0)
GPGPU-Sim uArch: Shader 1 finished CTA #0 (63012,0), 5 CTAs running
GPGPU-Sim uArch: core:  1, cta: 0 initialized @(63013,0)
GPGPU-Sim PTX: 22000000 instructions simulated : ctaid=(3,15,0) tid=(18,2,0)
GPGPU-Sim uArch: Shader 3 finished CTA #5 (63433,0), 5 CTAs running
GPGPU-Sim uArch: core:  3, cta: 5 initialized @(63434,0)
GPGPU-Sim PTX: 22100000 instructions simulated : ctaid=(3,16,0) tid=(28,5,0)
GPGPU-Sim uArch: cycles simulated: 63500  inst.: 20818370 (ipc=327.8) sim_rate=341284 (inst/sec) elapsed = 0:0:01:01 / Fri Jan 16 05:28:20 2015
GPGPU-Sim PTX: 22200000 instructions simulated : ctaid=(3,14,0) tid=(26,1,0)
GPGPU-Sim PTX: 22300000 instructions simulated : ctaid=(2,15,0) tid=(9,1,0)
GPGPU-Sim PTX: 22400000 instructions simulated : ctaid=(1,17,0) tid=(9,2,0)
GPGPU-Sim uArch: Shader 7 finished CTA #0 (64406,0), 5 CTAs running
GPGPU-Sim uArch: core:  7, cta: 0 initialized @(64407,0)
GPGPU-Sim uArch: cycles simulated: 64500  inst.: 21114165 (ipc=327.4) sim_rate=340551 (inst/sec) elapsed = 0:0:01:02 / Fri Jan 16 05:28:21 2015
GPGPU-Sim PTX: 22500000 instructions simulated : ctaid=(5,15,0) tid=(4,3,0)
GPGPU-Sim uArch: Shader 13 finished CTA #4 (64999,0), 5 CTAs running
GPGPU-Sim uArch: core: 13, cta: 4 initialized @(65000,0)
GPGPU-Sim PTX: 22600000 instructions simulated : ctaid=(7,12,0) tid=(26,7,0)
GPGPU-Sim uArch: Shader 10 finished CTA #5 (65054,0), 5 CTAs running
GPGPU-Sim uArch: core: 10, cta: 5 initialized @(65055,0)
GPGPU-Sim PTX: 22700000 instructions simulated : ctaid=(5,15,0) tid=(14,5,0)
GPGPU-Sim uArch: cycles simulated: 65500  inst.: 21429246 (ipc=327.2) sim_rate=340146 (inst/sec) elapsed = 0:0:01:03 / Fri Jan 16 05:28:22 2015
GPGPU-Sim PTX: 22800000 instructions simulated : ctaid=(5,14,0) tid=(29,3,0)
GPGPU-Sim PTX: 22900000 instructions simulated : ctaid=(1,17,0) tid=(12,0,0)
GPGPU-Sim PTX: 23000000 instructions simulated : ctaid=(7,16,0) tid=(19,1,0)
GPGPU-Sim PTX: 23100000 instructions simulated : ctaid=(7,16,0) tid=(9,5,0)
GPGPU-Sim uArch: cycles simulated: 66500  inst.: 21741991 (ipc=326.9) sim_rate=339718 (inst/sec) elapsed = 0:0:01:04 / Fri Jan 16 05:28:23 2015
GPGPU-Sim PTX: 23200000 instructions simulated : ctaid=(7,16,0) tid=(17,0,0)
GPGPU-Sim PTX: 23300000 instructions simulated : ctaid=(7,13,0) tid=(16,7,0)
GPGPU-Sim uArch: Shader 14 finished CTA #0 (67318,0), 5 CTAs running
GPGPU-Sim uArch: core: 14, cta: 0 initialized @(67319,0)
GPGPU-Sim PTX: 23400000 instructions simulated : ctaid=(5,17,0) tid=(12,5,0)
GPGPU-Sim uArch: cycles simulated: 67500  inst.: 22048814 (ipc=326.6) sim_rate=339212 (inst/sec) elapsed = 0:0:01:05 / Fri Jan 16 05:28:24 2015
GPGPU-Sim PTX: 23500000 instructions simulated : ctaid=(7,17,0) tid=(14,4,0)
GPGPU-Sim PTX: 23600000 instructions simulated : ctaid=(3,17,0) tid=(22,2,0)
GPGPU-Sim PTX: 23700000 instructions simulated : ctaid=(3,14,0) tid=(15,7,0)
GPGPU-Sim uArch: cycles simulated: 68500  inst.: 22347507 (ipc=326.2) sim_rate=338598 (inst/sec) elapsed = 0:0:01:06 / Fri Jan 16 05:28:25 2015
GPGPU-Sim PTX: 23800000 instructions simulated : ctaid=(3,15,0) tid=(21,0,0)
GPGPU-Sim uArch: Shader 4 finished CTA #3 (68805,0), 5 CTAs running
GPGPU-Sim uArch: core:  4, cta: 3 initialized @(68806,0)
GPGPU-Sim PTX: 23900000 instructions simulated : ctaid=(4,15,0) tid=(5,3,0)
GPGPU-Sim PTX: 24000000 instructions simulated : ctaid=(2,16,0) tid=(15,1,0)
GPGPU-Sim uArch: cycles simulated: 69500  inst.: 22644199 (ipc=325.8) sim_rate=337973 (inst/sec) elapsed = 0:0:01:07 / Fri Jan 16 05:28:26 2015
GPGPU-Sim PTX: 24100000 instructions simulated : ctaid=(6,16,0) tid=(7,0,0)
GPGPU-Sim PTX: 24200000 instructions simulated : ctaid=(0,19,0) tid=(4,6,0)
GPGPU-Sim PTX: 24300000 instructions simulated : ctaid=(0,15,0) tid=(10,7,0)
GPGPU-Sim uArch: Shader 12 finished CTA #5 (70417,0), 5 CTAs running
GPGPU-Sim uArch: core: 12, cta: 5 initialized @(70418,0)
GPGPU-Sim PTX: 24400000 instructions simulated : ctaid=(6,17,0) tid=(12,6,0)
GPGPU-Sim uArch: Shader 9 finished CTA #1 (70635,0), 5 CTAs running
GPGPU-Sim uArch: core:  9, cta: 1 initialized @(70636,0)
GPGPU-Sim PTX: 24500000 instructions simulated : ctaid=(1,17,0) tid=(1,4,0)
GPGPU-Sim uArch: cycles simulated: 71000  inst.: 23077588 (ipc=325.0) sim_rate=339376 (inst/sec) elapsed = 0:0:01:08 / Fri Jan 16 05:28:27 2015
GPGPU-Sim PTX: 24600000 instructions simulated : ctaid=(5,16,0) tid=(6,7,0)
GPGPU-Sim uArch: Shader 12 finished CTA #1 (71290,0), 5 CTAs running
GPGPU-Sim uArch: core: 12, cta: 1 initialized @(71291,0)
GPGPU-Sim PTX: 24700000 instructions simulated : ctaid=(3,16,0) tid=(6,7,0)
GPGPU-Sim PTX: 24800000 instructions simulated : ctaid=(5,15,0) tid=(25,3,0)
GPGPU-Sim uArch: cycles simulated: 72000  inst.: 23374418 (ipc=324.6) sim_rate=338759 (inst/sec) elapsed = 0:0:01:09 / Fri Jan 16 05:28:28 2015
GPGPU-Sim PTX: 24900000 instructions simulated : ctaid=(7,14,0) tid=(8,6,0)
GPGPU-Sim uArch: Shader 11 finished CTA #0 (72302,0), 5 CTAs running
GPGPU-Sim uArch: core: 11, cta: 0 initialized @(72303,0)
GPGPU-Sim PTX: 25000000 instructions simulated : ctaid=(3,17,0) tid=(27,0,0)
GPGPU-Sim PTX: 25100000 instructions simulated : ctaid=(1,19,0) tid=(12,0,0)
GPGPU-Sim uArch: cycles simulated: 73000  inst.: 23665375 (ipc=324.2) sim_rate=338076 (inst/sec) elapsed = 0:0:01:10 / Fri Jan 16 05:28:29 2015
GPGPU-Sim PTX: 25200000 instructions simulated : ctaid=(5,18,0) tid=(30,6,0)
GPGPU-Sim uArch: Shader 11 finished CTA #5 (73200,0), 5 CTAs running
GPGPU-Sim uArch: core: 11, cta: 5 initialized @(73201,0)
GPGPU-Sim PTX: 25300000 instructions simulated : ctaid=(1,19,0) tid=(31,6,0)
GPGPU-Sim PTX: 25400000 instructions simulated : ctaid=(6,14,0) tid=(22,1,0)
GPGPU-Sim uArch: cycles simulated: 74000  inst.: 23971983 (ipc=323.9) sim_rate=337633 (inst/sec) elapsed = 0:0:01:11 / Fri Jan 16 05:28:30 2015
GPGPU-Sim PTX: 25500000 instructions simulated : ctaid=(7,16,0) tid=(0,5,0)
GPGPU-Sim PTX: 25600000 instructions simulated : ctaid=(1,18,0) tid=(14,0,0)
GPGPU-Sim uArch: Shader 4 finished CTA #5 (74487,0), 5 CTAs running
GPGPU-Sim uArch: core:  4, cta: 5 initialized @(74488,0)
GPGPU-Sim uArch: Shader 10 finished CTA #2 (74551,0), 5 CTAs running
GPGPU-Sim uArch: core: 10, cta: 2 initialized @(74552,0)
GPGPU-Sim PTX: 25700000 instructions simulated : ctaid=(5,16,0) tid=(15,5,0)
GPGPU-Sim uArch: Shader 8 finished CTA #0 (74970,0), 5 CTAs running
GPGPU-Sim uArch: core:  8, cta: 0 initialized @(74971,0)
GPGPU-Sim PTX: 25800000 instructions simulated : ctaid=(3,17,0) tid=(19,6,0)
GPGPU-Sim uArch: cycles simulated: 75000  inst.: 24281429 (ipc=323.8) sim_rate=337242 (inst/sec) elapsed = 0:0:01:12 / Fri Jan 16 05:28:31 2015
GPGPU-Sim PTX: 25900000 instructions simulated : ctaid=(1,21,0) tid=(6,0,0)
GPGPU-Sim PTX: 26000000 instructions simulated : ctaid=(0,17,0) tid=(17,5,0)
GPGPU-Sim uArch: Shader 13 finished CTA #5 (75625,0), 5 CTAs running
GPGPU-Sim uArch: core: 13, cta: 5 initialized @(75626,0)
GPGPU-Sim PTX: 26100000 instructions simulated : ctaid=(6,18,0) tid=(29,0,0)
GPGPU-Sim uArch: cycles simulated: 76000  inst.: 24585757 (ipc=323.5) sim_rate=336791 (inst/sec) elapsed = 0:0:01:13 / Fri Jan 16 05:28:32 2015
GPGPU-Sim PTX: 26200000 instructions simulated : ctaid=(5,19,0) tid=(4,6,0)
GPGPU-Sim uArch: Shader 2 finished CTA #3 (76393,0), 5 CTAs running
GPGPU-Sim uArch: core:  2, cta: 3 initialized @(76394,0)
GPGPU-Sim PTX: 26300000 instructions simulated : ctaid=(1,18,0) tid=(6,0,0)
GPGPU-Sim uArch: Shader 6 finished CTA #3 (76634,0), 5 CTAs running
GPGPU-Sim uArch: core:  6, cta: 3 initialized @(76635,0)
GPGPU-Sim PTX: 26400000 instructions simulated : ctaid=(1,16,0) tid=(23,7,0)
GPGPU-Sim uArch: Shader 7 finished CTA #1 (76915,0), 5 CTAs running
GPGPU-Sim uArch: core:  7, cta: 1 initialized @(76916,0)
GPGPU-Sim uArch: cycles simulated: 77000  inst.: 24896207 (ipc=323.3) sim_rate=336435 (inst/sec) elapsed = 0:0:01:14 / Fri Jan 16 05:28:33 2015
GPGPU-Sim uArch: Shader 0 finished CTA #1 (77103,0), 5 CTAs running
GPGPU-Sim uArch: core:  0, cta: 1 initialized @(77104,0)
GPGPU-Sim PTX: 26500000 instructions simulated : ctaid=(0,14,0) tid=(1,5,0)
GPGPU-Sim PTX: 26600000 instructions simulated : ctaid=(4,18,0) tid=(27,0,0)
GPGPU-Sim PTX: 26700000 instructions simulated : ctaid=(6,17,0) tid=(0,7,0)
GPGPU-Sim uArch: cycles simulated: 78000  inst.: 25195404 (ipc=323.0) sim_rate=335938 (inst/sec) elapsed = 0:0:01:15 / Fri Jan 16 05:28:34 2015
GPGPU-Sim PTX: 26800000 instructions simulated : ctaid=(4,18,0) tid=(24,1,0)
GPGPU-Sim uArch: Shader 8 finished CTA #2 (78082,0), 5 CTAs running
GPGPU-Sim uArch: core:  8, cta: 2 initialized @(78083,0)
GPGPU-Sim PTX: 26900000 instructions simulated : ctaid=(6,17,0) tid=(26,5,0)
GPGPU-Sim PTX: 27000000 instructions simulated : ctaid=(3,15,0) tid=(19,5,0)
GPGPU-Sim uArch: Shader 5 finished CTA #5 (78956,0), 5 CTAs running
GPGPU-Sim uArch: core:  5, cta: 5 initialized @(78957,0)
GPGPU-Sim PTX: 27100000 instructions simulated : ctaid=(4,19,0) tid=(24,4,0)
GPGPU-Sim uArch: cycles simulated: 79000  inst.: 25502683 (ipc=322.8) sim_rate=335561 (inst/sec) elapsed = 0:0:01:16 / Fri Jan 16 05:28:35 2015
GPGPU-Sim PTX: 27200000 instructions simulated : ctaid=(0,17,0) tid=(11,3,0)
GPGPU-Sim uArch: Shader 1 finished CTA #1 (79340,0), 5 CTAs running
GPGPU-Sim uArch: core:  1, cta: 1 initialized @(79341,0)
GPGPU-Sim PTX: 27300000 instructions simulated : ctaid=(2,17,0) tid=(29,6,0)
GPGPU-Sim PTX: 27400000 instructions simulated : ctaid=(4,19,0) tid=(20,4,0)
GPGPU-Sim uArch: cycles simulated: 80000  inst.: 25814574 (ipc=322.7) sim_rate=335254 (inst/sec) elapsed = 0:0:01:17 / Fri Jan 16 05:28:36 2015
GPGPU-Sim PTX: 27500000 instructions simulated : ctaid=(6,14,0) tid=(28,7,0)
GPGPU-Sim PTX: 27600000 instructions simulated : ctaid=(1,21,0) tid=(12,0,0)
GPGPU-Sim PTX: 27700000 instructions simulated : ctaid=(4,15,0) tid=(21,7,0)
GPGPU-Sim uArch: cycles simulated: 81000  inst.: 26134800 (ipc=322.7) sim_rate=335061 (inst/sec) elapsed = 0:0:01:18 / Fri Jan 16 05:28:37 2015
GPGPU-Sim PTX: 27800000 instructions simulated : ctaid=(5,17,0) tid=(0,1,0)
GPGPU-Sim PTX: 27900000 instructions simulated : ctaid=(6,20,0) tid=(27,0,0)
GPGPU-Sim uArch: Shader 8 finished CTA #1 (81640,0), 5 CTAs running
GPGPU-Sim uArch: core:  8, cta: 1 initialized @(81641,0)
GPGPU-Sim PTX: 28000000 instructions simulated : ctaid=(4,16,0) tid=(15,1,0)
GPGPU-Sim PTX: 28100000 instructions simulated : ctaid=(1,21,0) tid=(26,4,0)
GPGPU-Sim uArch: cycles simulated: 82000  inst.: 26455677 (ipc=322.6) sim_rate=334881 (inst/sec) elapsed = 0:0:01:19 / Fri Jan 16 05:28:38 2015
GPGPU-Sim uArch: Shader 9 finished CTA #2 (82165,0), 5 CTAs running
GPGPU-Sim uArch: core:  9, cta: 2 initialized @(82166,0)
GPGPU-Sim PTX: 28200000 instructions simulated : ctaid=(2,21,0) tid=(15,2,0)
GPGPU-Sim PTX: 28300000 instructions simulated : ctaid=(3,18,0) tid=(15,3,0)
GPGPU-Sim uArch: Shader 6 finished CTA #0 (82823,0), 5 CTAs running
GPGPU-Sim uArch: core:  6, cta: 0 initialized @(82824,0)
GPGPU-Sim PTX: 28400000 instructions simulated : ctaid=(0,20,0) tid=(28,1,0)
GPGPU-Sim uArch: Shader 14 finished CTA #3 (82902,0), 5 CTAs running
GPGPU-Sim uArch: core: 14, cta: 3 initialized @(82903,0)
GPGPU-Sim uArch: cycles simulated: 83000  inst.: 26775282 (ipc=322.6) sim_rate=334691 (inst/sec) elapsed = 0:0:01:20 / Fri Jan 16 05:28:39 2015
GPGPU-Sim PTX: 28500000 instructions simulated : ctaid=(0,17,0) tid=(14,3,0)
GPGPU-Sim uArch: Shader 4 finished CTA #0 (83328,0), 5 CTAs running
GPGPU-Sim uArch: core:  4, cta: 0 initialized @(83329,0)
GPGPU-Sim PTX: 28600000 instructions simulated : ctaid=(5,20,0) tid=(2,4,0)
GPGPU-Sim uArch: Shader 3 finished CTA #0 (83504,0), 5 CTAs running
GPGPU-Sim uArch: core:  3, cta: 0 initialized @(83505,0)
GPGPU-Sim PTX: 28700000 instructions simulated : ctaid=(7,18,0) tid=(11,1,0)
GPGPU-Sim uArch: cycles simulated: 84000  inst.: 27100050 (ipc=322.6) sim_rate=334568 (inst/sec) elapsed = 0:0:01:21 / Fri Jan 16 05:28:40 2015
GPGPU-Sim PTX: 28800000 instructions simulated : ctaid=(4,20,0) tid=(12,2,0)
GPGPU-Sim PTX: 28900000 instructions simulated : ctaid=(4,16,0) tid=(14,1,0)
GPGPU-Sim PTX: 29000000 instructions simulated : ctaid=(4,16,0) tid=(16,3,0)
GPGPU-Sim uArch: Shader 5 finished CTA #2 (84848,0), 5 CTAs running
GPGPU-Sim PTX: 29100000 instructions simulated : ctaid=(1,16,0) tid=(13,1,0)
GPGPU-Sim uArch: core:  5, cta: 2 initialized @(84849,0)
GPGPU-Sim uArch: cycles simulated: 85000  inst.: 27433291 (ipc=322.7) sim_rate=334552 (inst/sec) elapsed = 0:0:01:22 / Fri Jan 16 05:28:41 2015
GPGPU-Sim PTX: 29200000 instructions simulated : ctaid=(5,21,0) tid=(25,2,0)
GPGPU-Sim uArch: Shader 1 finished CTA #2 (85324,0), 5 CTAs running
GPGPU-Sim uArch: core:  1, cta: 2 initialized @(85325,0)
GPGPU-Sim PTX: 29300000 instructions simulated : ctaid=(4,21,0) tid=(8,2,0)
GPGPU-Sim uArch: Shader 0 finished CTA #2 (85592,0), 5 CTAs running
GPGPU-Sim uArch: core:  0, cta: 2 initialized @(85593,0)
GPGPU-Sim PTX: 29400000 instructions simulated : ctaid=(7,14,0) tid=(2,3,0)
GPGPU-Sim PTX: 29500000 instructions simulated : ctaid=(2,17,0) tid=(25,3,0)
GPGPU-Sim uArch: cycles simulated: 86000  inst.: 27774844 (ipc=323.0) sim_rate=334636 (inst/sec) elapsed = 0:0:01:23 / Fri Jan 16 05:28:42 2015
GPGPU-Sim uArch: Shader 10 finished CTA #3 (86042,0), 5 CTAs running
GPGPU-Sim uArch: core: 10, cta: 3 initialized @(86043,0)
GPGPU-Sim PTX: 29600000 instructions simulated : ctaid=(5,20,0) tid=(30,6,0)
GPGPU-Sim PTX: 29700000 instructions simulated : ctaid=(7,22,0) tid=(3,6,0)
GPGPU-Sim PTX: 29800000 instructions simulated : ctaid=(6,19,0) tid=(0,4,0)
GPGPU-Sim uArch: Shader 9 finished CTA #0 (86875,0), 5 CTAs running
GPGPU-Sim uArch: core:  9, cta: 0 initialized @(86876,0)
GPGPU-Sim uArch: cycles simulated: 87000  inst.: 28113916 (ipc=323.1) sim_rate=334689 (inst/sec) elapsed = 0:0:01:24 / Fri Jan 16 05:28:43 2015
GPGPU-Sim PTX: 29900000 instructions simulated : ctaid=(2,21,0) tid=(8,6,0)
GPGPU-Sim PTX: 30000000 instructions simulated : ctaid=(5,16,0) tid=(9,5,0)
GPGPU-Sim PTX: 30100000 instructions simulated : ctaid=(1,18,0) tid=(21,5,0)
GPGPU-Sim PTX: 30200000 instructions simulated : ctaid=(1,18,0) tid=(16,3,0)
GPGPU-Sim uArch: cycles simulated: 88000  inst.: 28457958 (ipc=323.4) sim_rate=334799 (inst/sec) elapsed = 0:0:01:25 / Fri Jan 16 05:28:44 2015
GPGPU-Sim PTX: 30300000 instructions simulated : ctaid=(0,20,0) tid=(7,3,0)
GPGPU-Sim PTX: 30400000 instructions simulated : ctaid=(4,17,0) tid=(24,5,0)
GPGPU-Sim uArch: Shader 11 finished CTA #1 (88495,0), 5 CTAs running
GPGPU-Sim uArch: core: 11, cta: 1 initialized @(88496,0)
GPGPU-Sim PTX: 30500000 instructions simulated : ctaid=(3,22,0) tid=(27,6,0)
GPGPU-Sim uArch: Shader 5 finished CTA #3 (88808,0), 5 CTAs running
GPGPU-Sim uArch: core:  5, cta: 3 initialized @(88809,0)
GPGPU-Sim PTX: 30600000 instructions simulated : ctaid=(4,16,0) tid=(3,7,0)
GPGPU-Sim uArch: cycles simulated: 89000  inst.: 28810387 (ipc=323.7) sim_rate=335004 (inst/sec) elapsed = 0:0:01:26 / Fri Jan 16 05:28:45 2015
GPGPU-Sim PTX: 30700000 instructions simulated : ctaid=(2,18,0) tid=(24,3,0)
GPGPU-Sim PTX: 30800000 instructions simulated : ctaid=(7,19,0) tid=(0,5,0)
GPGPU-Sim PTX: 30900000 instructions simulated : ctaid=(4,22,0) tid=(2,6,0)
GPGPU-Sim uArch: cycles simulated: 90000  inst.: 29161538 (ipc=324.0) sim_rate=335190 (inst/sec) elapsed = 0:0:01:27 / Fri Jan 16 05:28:46 2015
GPGPU-Sim PTX: 31000000 instructions simulated : ctaid=(7,14,0) tid=(25,7,0)
GPGPU-Sim uArch: Shader 14 finished CTA #2 (90070,0), 5 CTAs running
GPGPU-Sim uArch: core: 14, cta: 2 initialized @(90071,0)
GPGPU-Sim uArch: Shader 2 finished CTA #1 (90156,0), 5 CTAs running
GPGPU-Sim uArch: core:  2, cta: 1 initialized @(90157,0)
GPGPU-Sim PTX: 31100000 instructions simulated : ctaid=(2,18,0) tid=(4,7,0)
GPGPU-Sim PTX: 31200000 instructions simulated : ctaid=(2,16,0) tid=(13,7,0)
GPGPU-Sim PTX: 31300000 instructions simulated : ctaid=(0,17,0) tid=(24,1,0)
GPGPU-Sim uArch: cycles simulated: 91000  inst.: 29510981 (ipc=324.3) sim_rate=335352 (inst/sec) elapsed = 0:0:01:28 / Fri Jan 16 05:28:47 2015
GPGPU-Sim PTX: 31400000 instructions simulated : ctaid=(7,14,0) tid=(25,7,0)
GPGPU-Sim PTX: 31500000 instructions simulated : ctaid=(7,14,0) tid=(8,7,0)
GPGPU-Sim PTX: 31600000 instructions simulated : ctaid=(1,13,0) tid=(24,7,0)
GPGPU-Sim PTX: 31700000 instructions simulated : ctaid=(4,23,0) tid=(30,2,0)
GPGPU-Sim uArch: cycles simulated: 92000  inst.: 29839026 (ipc=324.3) sim_rate=335269 (inst/sec) elapsed = 0:0:01:29 / Fri Jan 16 05:28:48 2015
GPGPU-Sim PTX: 31800000 instructions simulated : ctaid=(1,22,0) tid=(26,3,0)
GPGPU-Sim PTX: 31900000 instructions simulated : ctaid=(7,21,0) tid=(8,0,0)
GPGPU-Sim PTX: 32000000 instructions simulated : ctaid=(2,25,0) tid=(14,4,0)
GPGPU-Sim uArch: cycles simulated: 93000  inst.: 30160732 (ipc=324.3) sim_rate=335119 (inst/sec) elapsed = 0:0:01:30 / Fri Jan 16 05:28:49 2015
GPGPU-Sim PTX: 32100000 instructions simulated : ctaid=(3,23,0) tid=(14,2,0)
GPGPU-Sim PTX: 32200000 instructions simulated : ctaid=(3,19,0) tid=(6,6,0)
GPGPU-Sim PTX: 32300000 instructions simulated : ctaid=(5,20,0) tid=(16,6,0)
GPGPU-Sim uArch: cycles simulated: 94000  inst.: 30474128 (ipc=324.2) sim_rate=334880 (inst/sec) elapsed = 0:0:01:31 / Fri Jan 16 05:28:50 2015
GPGPU-Sim PTX: 32400000 instructions simulated : ctaid=(1,22,0) tid=(14,0,0)
GPGPU-Sim PTX: 32500000 instructions simulated : ctaid=(2,21,0) tid=(20,5,0)
GPGPU-Sim uArch: Shader 12 finished CTA #0 (94401,0), 5 CTAs running
GPGPU-Sim uArch: core: 12, cta: 0 initialized @(94402,0)
GPGPU-Sim uArch: Shader 13 finished CTA #2 (94522,0), 5 CTAs running
GPGPU-Sim uArch: core: 13, cta: 2 initialized @(94523,0)
GPGPU-Sim PTX: 32600000 instructions simulated : ctaid=(2,24,0) tid=(12,4,0)
GPGPU-Sim PTX: 32700000 instructions simulated : ctaid=(5,22,0) tid=(22,4,0)
GPGPU-Sim uArch: cycles simulated: 95000  inst.: 30794905 (ipc=324.2) sim_rate=334727 (inst/sec) elapsed = 0:0:01:32 / Fri Jan 16 05:28:51 2015
GPGPU-Sim uArch: Shader 3 finished CTA #1 (95156,0), 5 CTAs running
GPGPU-Sim uArch: core:  3, cta: 1 initialized @(95157,0)
GPGPU-Sim PTX: 32800000 instructions simulated : ctaid=(4,19,0) tid=(16,7,0)
GPGPU-Sim uArch: Shader 9 finished CTA #3 (95426,0), 5 CTAs running
GPGPU-Sim uArch: core:  9, cta: 3 initialized @(95427,0)
GPGPU-Sim PTX: 32900000 instructions simulated : ctaid=(2,24,0) tid=(11,0,0)
GPGPU-Sim uArch: Shader 11 finished CTA #4 (95488,0), 5 CTAs running
GPGPU-Sim uArch: core: 11, cta: 4 initialized @(95489,0)
GPGPU-Sim uArch: Shader 7 finished CTA #4 (95641,0), 5 CTAs running
GPGPU-Sim uArch: core:  7, cta: 4 initialized @(95642,0)
GPGPU-Sim PTX: 33000000 instructions simulated : ctaid=(2,18,0) tid=(16,5,0)
GPGPU-Sim uArch: cycles simulated: 96000  inst.: 31134724 (ipc=324.3) sim_rate=334781 (inst/sec) elapsed = 0:0:01:33 / Fri Jan 16 05:28:52 2015
GPGPU-Sim PTX: 33100000 instructions simulated : ctaid=(2,21,0) tid=(0,3,0)
GPGPU-Sim PTX: 33200000 instructions simulated : ctaid=(4,19,0) tid=(0,7,0)
GPGPU-Sim PTX: 33300000 instructions simulated : ctaid=(0,18,0) tid=(10,3,0)
GPGPU-Sim PTX: 33400000 instructions simulated : ctaid=(6,21,0) tid=(5,6,0)
[...]
gpgpu_stall_shd_mem[t_mem][mshr_rc] = 0
gpgpu_stall_shd_mem[t_mem][icnt_rc] = 0
gpgpu_stall_shd_mem[t_mem][data_port_stall] = 0
gpgpu_stall_shd_mem[s_mem][bk_conf] = 0
gpgpu_stall_shd_mem[gl_mem][bk_conf] = 0
gpgpu_stall_shd_mem[gl_mem][coal_stall] = 0
gpgpu_stall_shd_mem[gl_mem][data_port_stall] = 0
gpgpu_stall_shd_mem[g_mem_ld][mshr_rc] = 0
gpgpu_stall_shd_mem[g_mem_ld][icnt_rc] = 0
gpgpu_stall_shd_mem[g_mem_ld][wb_icnt_rc] = 0
gpgpu_stall_shd_mem[g_mem_ld][wb_rsrv_fail] = 0
gpgpu_stall_shd_mem[g_mem_st][mshr_rc] = 0
gpgpu_stall_shd_mem[g_mem_st][icnt_rc] = 0
gpgpu_stall_shd_mem[g_mem_st][wb_icnt_rc] = 0
gpgpu_stall_shd_mem[g_mem_st][wb_rsrv_fail] = 0
gpgpu_stall_shd_mem[l_mem_ld][mshr_rc] = 0
gpgpu_stall_shd_mem[l_mem_ld][icnt_rc] = 0
gpgpu_stall_shd_mem[l_mem_ld][wb_icnt_rc] = 0
gpgpu_stall_shd_mem[l_mem_ld][wb_rsrv_fail] = 0
gpgpu_stall_shd_mem[l_mem_st][mshr_rc] = 0
gpgpu_stall_shd_mem[l_mem_st][icnt_rc] = 0
gpgpu_stall_shd_mem[l_mem_ld][wb_icnt_rc] = 0
gpgpu_stall_shd_mem[l_mem_ld][wb_rsrv_fail] = 0
gpu_reg_bank_conflict_stalls = 0
Warp Occupancy Distribution:
Stall:591628	W0_Idle:373079	W0_Scoreboard:202829	W1:931606	W2:462826	W3:291726	W4:198174	W5:155342	W6:126384	W7:100656	W8:90064	W9:75408	W10:71312	W11:64768	W12:59856	W13:47008	W14:39632	W15:38016	W16:34624	W17:32736	W18:29936	W19:34912	W20:26224	W21:26800	W22:27920	W23:27312	W24:27328	W25:27616	W26:24672	W27:22160	W28:23824	W29:17904	W30:16752	W31:18592	W32:1101264
traffic_breakdown_coretomem[CONST_ACC_R] = 120 {8:15,}
traffic_breakdown_coretomem[GLOBAL_ACC_W] = 81920 {40:2048,}
traffic_breakdown_coretomem[INST_ACC_R] = 480 {8:60,}
traffic_breakdown_memtocore[CONST_ACC_R] = 1080 {72:15,}
traffic_breakdown_memtocore[GLOBAL_ACC_W] = 16384 {8:2048,}
traffic_breakdown_memtocore[INST_ACC_R] = 8160 {136:60,}
maxmrqlatency = 15 
maxdqlatency = 0 
maxmflatency = 278 
averagemflatency = 168 
max_icnt2mem_latency = 36 
max_icnt2sh_latency = 204077 
mrq_lat_table:1011 	0 	23 	8 	0 	0 	0 	0 	0 	0 	0 	0 	0 	0 	0 	0 	0 	0 	0 	0 	0 	0 	0 	0 	0 	0 	0 	0 	0 	0 	0 	0 	
dq_lat_table:0 	0 	0 	0 	0 	0 	0 	0 	0 	0 	0 	0 	0 	0 	0 	0 	0 	0 	0 	0 	0 	0 	0 	0 	0 	0 	0 	0 	0 	0 	0 	0 	
mf_lat_table:0 	0 	0 	0 	0 	0 	0 	2043 	20 	0 	0 	0 	0 	0 	0 	0 	0 	0 	0 	0 	0 	0 	0 	0 	0 	0 	0 	0 	0 	0 	0 	0 	
icnt2mem_lat_table:0 	0 	0 	2108 	12 	3 	0 	0 	0 	0 	0 	0 	0 	0 	0 	0 	0 	0 	0 	0 	0 	0 	0 	0 	
icnt2sh_lat_table:0 	0 	0 	2 	13 	0 	0 	0 	0 	0 	0 	22 	134 	70 	263 	366 	700 	493 	0 	0 	0 	0 	0 	0 	
mf_lat_pw_table:0 	0 	0 	0 	0 	0 	0 	372 	1 	0 	0 	0 	0 	0 	0 	0 	0 	0 	0 	0 	0 	0 	0 	0 	0 	0 	0 	0 	0 	0 	0 	0 	
maximum concurrent accesses to same row:
dram[0]:         1         0         0         0         0         0         0         0         0         0         0         0         0         0         0         0 
dram[1]:         0         0         0         0         0         0         0         0         0         0         0         0         0         0         0         0 
dram[2]:         0         0         0         0         0         0         0         0         0         0         0         0         0         0         0         0 
dram[3]:         0         0         0         0         0         0         0         0         0         0         0         0         0         0         0         0 
dram[4]:         0         0         0         0         0         0         0         0         0         0         0         0         0         0         0         0 
dram[5]:         0         0         0         0         0         0         0         0         0         0         0         0         0         0         0         0 
maximum service time to same row:
dram[0]:       369         0         0         0      3040      3041     13841     19013         0         0         0         0         0         0         0         0 
dram[1]:      1509         0         0         0      3049      3047     20232     26552         0         0         0         0         0         0         0         0 
dram[2]:         0         0         0         0      3046      3031     16346     14069         0         0         0         0         0         0         0         0 
dram[3]:         0         0         0         0      3051      3034     23047     21106         0         0         0         0         0         0         0         0 
dram[4]:         0         0         0         0      3035      3037     17925     16268         0         0         0         0         0         0         0         0 
dram[5]:         0         0         0         0      3038      3043     24675     23787         0         0         0         0         0         0         0         0 
average row accesses per activate:
dram[0]:  1.000000      -nan      -nan      -nan 21.000000 20.000000 64.000000 65.000000      -nan      -nan      -nan      -nan      -nan      -nan      -nan      -nan 
dram[1]:  2.000000      -nan      -nan      -nan 21.000000 21.000000 65.000000 66.000000      -nan      -nan      -nan      -nan      -nan      -nan      -nan      -nan 
dram[2]:      -nan      -nan      -nan      -nan 20.000000 25.000000 64.000000 65.000000      -nan      -nan      -nan      -nan      -nan      -nan      -nan      -nan 
dram[3]:      -nan      -nan      -nan      -nan 20.000000 25.000000 64.000000 65.000000      -nan      -nan      -nan      -nan      -nan      -nan      -nan      -nan 
dram[4]:      -nan      -nan      -nan      -nan 20.000000 25.000000 64.000000 64.000000      -nan      -nan      -nan      -nan      -nan      -nan      -nan      -nan 
dram[5]:      -nan      -nan      -nan      -nan 20.000000 25.000000 64.000000 64.000000      -nan      -nan      -nan      -nan      -nan      -nan      -nan      -nan 
average row locality = 1042/28 = 37.214287
number of total memory accesses made:
dram[0]:         0         0         0         0         0         0         0         0         0         0         0         0         0         0         0         0 
dram[1]:         0         0         0         0         0         0         0         0         0         0         0         0         0         0         0         0 
dram[2]:         0         0         0         0         0         0         0         0         0         0         0         0         0         0         0         0 
dram[3]:         0         0         0         0         0         0         0         0         0         0         0         0         0         0         0         0 
dram[4]:         0         0         0         0         0         0         0         0         0         0         0         0         0         0         0         0 
dram[5]:         0         0         0         0         0         0         0         0         0         0         0         0         0         0         0         0 
total accesses: 0
min_bank_accesses = 0!
min_chip_accesses = 0!
number of total read accesses:
dram[0]:         3         0         0         0        10        10        32        32         0         0         0         0         0         0         0         0 
dram[1]:         2         0         0         0        10        10        32        32         0         0         0         0         0         0         0         0 
dram[2]:         0         0         0         0        10        12        32        32         0         0         0         0         0         0         0         0 
dram[3]:         0         0         0         0        10        12        32        32         0         0         0         0         0         0         0         0 
dram[4]:         0         0         0         0        10        12        32        32         0         0         0         0         0         0         0         0 
dram[5]:         0         0         0         0        10        12        32        32         0         0         0         0         0         0         0         0 
total reads: 517
min_bank_accesses = 0!
chip skew: 87/86 = 1.01
number of total write accesses:
dram[0]:         0         0         0         0        11        10        32        33         0         0         0         0         0         0         0         0 
dram[1]:         0         0         0         0        11        11        33        34         0         0         0         0         0         0         0         0 
dram[2]:         0         0         0         0        10        13        32        33         0         0         0         0         0         0         0         0 
dram[3]:         0         0         0         0        10        13        32        33         0         0         0         0         0         0         0         0 
dram[4]:         0         0         0         0        10        13        32        32         0         0         0         0         0         0         0         0 
dram[5]:         0         0         0         0        10        13        32        32         0         0         0         0         0         0         0         0 
total reads: 525
min_bank_accesses = 0!
chip skew: 89/86 = 1.03
average mf latency per bank:
dram[0]:       1300    none      none      none         323       333       333       329    none      none      none      none      none      none      none      none  
dram[1]:          0    none      none      none         323       322       329       326    none      none      none      none      none      none      none      none  
dram[2]:     none      none      none      none         334       325       333       329    none      none      none      none      none      none      none      none  
dram[3]:     none      none      none      none         334       324       333       329    none      none      none      none      none      none      none      none  
dram[4]:     none      none      none      none         333       324       333       333    none      none      none      none      none      none      none      none  
dram[5]:     none      none      none      none         333       324       333       333    none      none      none      none      none      none      none      none  
maximum mf latency per bank:
dram[0]:        278         0         0         0       257       259       252       252         0         0         0         0         0         0         0         0
dram[1]:          0         0         0         0       262       258       252       258         0         0         0         0         0         0         0         0
dram[2]:          0         0         0         0       266       266       252       252         0         0         0         0         0         0         0         0
dram[3]:          0         0         0         0       265       254       252       252         0         0         0         0         0         0         0         0
dram[4]:          0         0         0         0       252       257       252       252         0         0         0         0         0         0         0         0
dram[5]:          0         0         0         0       254       258       254       252         0         0         0         0         0         0         0         0
Memory Partition 0: 
Cache L2_bank_000:
MSHR contents

Cache L2_bank_001:
MSHR contents

In Dram Latency Queue (total = 0): 
DRAM[0]: 16 bks, busW=4 BL=8 CL=12, tRRD=2 tCCD=6, tRCD=12 tRAS=28 tRP=12 tRC=40
n_cmd=269382 n_nop=269113 n_act=7 n_pre=2 n_req=173 n_rd=174 n_write=86 bw_util=0.00193
n_activity=2372 dram_eff=0.2192
bk0: 6a 269310i bk1: 0a 269381i bk2: 0a 269384i bk3: 0a 269384i bk4: 20a 269223i bk5: 20a 269219i bk6: 64a 268908i bk7: 64a 268900i bk8: 0a 269380i bk9: 0a 269380i bk10: 0a 269381i bk11: 0a 269381i bk12: 0a 269381i bk13: 0a 269381i bk14: 0a 269381i bk15: 0a 269382i 
dram_util_bins: 0 0 0 0 0 0 0 0 0 0
dram_eff_bins: 0 0 0 0 0 0 0 0 0 0
mrqq: max=2 avg=0.000115078
Memory Partition 1: 
Cache L2_bank_002:
MSHR contents

Cache L2_bank_003:
MSHR contents

In Dram Latency Queue (total = 0): 
DRAM[1]: 16 bks, busW=4 BL=8 CL=12, tRRD=2 tCCD=6, tRCD=12 tRAS=28 tRP=12 tRC=40
n_cmd=269382 n_nop=269116 n_act=5 n_pre=0 n_req=175 n_rd=172 n_write=89 bw_util=0.001938
n_activity=2316 dram_eff=0.2254
bk0: 4a 269362i bk1: 0a 269383i bk2: 0a 269383i bk3: 0a 269385i bk4: 20a 269223i bk5: 20a 269216i bk6: 64a 268904i bk7: 64a 268883i bk8: 0a 269380i bk9: 0a 269381i bk10: 0a 269381i bk11: 0a 269381i bk12: 0a 269381i bk13: 0a 269381i bk14: 0a 269381i bk15: 0a 269382i 
dram_util_bins: 0 0 0 0 0 0 0 0 0 0
dram_eff_bins: 0 0 0 0 0 0 0 0 0 0
mrqq: max=2 avg=0.000133639
Memory Partition 2: 
Cache L2_bank_004:
MSHR contents

Cache L2_bank_005:
MSHR contents

In Dram Latency Queue (total = 0): 
DRAM[2]: 16 bks, busW=4 BL=8 CL=12, tRRD=2 tCCD=6, tRCD=12 tRAS=28 tRP=12 tRC=40
n_cmd=269382 n_nop=269118 n_act=4 n_pre=0 n_req=174 n_rd=172 n_write=88 bw_util=0.00193
n_activity=2276 dram_eff=0.2285
bk0: 0a 269382i bk1: 0a 269383i bk2: 0a 269385i bk3: 0a 269385i bk4: 20a 269209i bk5: 24a 269179i bk6: 64a 268908i bk7: 64a 268896i bk8: 0a 269380i bk9: 0a 269380i bk10: 0a 269380i bk11: 0a 269381i bk12: 0a 269382i bk13: 0a 269382i bk14: 0a 269382i bk15: 0a 269382i 
dram_util_bins: 0 0 0 0 0 0 0 0 0 0
dram_eff_bins: 0 0 0 0 0 0 0 0 0 0
mrqq: max=3 avg=0.000256142
Memory Partition 3: 
Cache L2_bank_006:
MSHR contents

Cache L2_bank_007:
MSHR contents

In Dram Latency Queue (total = 0): 
DRAM[3]: 16 bks, busW=4 BL=8 CL=12, tRRD=2 tCCD=6, tRCD=12 tRAS=28 tRP=12 tRC=40
n_cmd=269382 n_nop=269118 n_act=4 n_pre=0 n_req=174 n_rd=172 n_write=88 bw_util=0.00193
n_activity=2276 dram_eff=0.2285
bk0: 0a 269383i bk1: 0a 269384i bk2: 0a 269385i bk3: 0a 269385i bk4: 20a 269225i bk5: 24a 269189i bk6: 64a 268906i bk7: 64a 268892i bk8: 0a 269379i bk9: 0a 269379i bk10: 0a 269379i bk11: 0a 269380i bk12: 0a 269381i bk13: 0a 269381i bk14: 0a 269382i bk15: 0a 269382i 
dram_util_bins: 0 0 0 0 0 0 0 0 0 0
dram_eff_bins: 0 0 0 0 0 0 0 0 0 0
mrqq: max=2 avg=0.000129927
Memory Partition 4: 
Cache L2_bank_008:
MSHR contents

Cache L2_bank_009:
MSHR contents

In Dram Latency Queue (total = 0): 
DRAM[4]: 16 bks, busW=4 BL=8 CL=12, tRRD=2 tCCD=6, tRCD=12 tRAS=28 tRP=12 tRC=40
n_cmd=269382 n_nop=269119 n_act=4 n_pre=0 n_req=173 n_rd=172 n_write=87 bw_util=0.001923
n_activity=2269 dram_eff=0.2283
bk0: 0a 269382i bk1: 0a 269383i bk2: 0a 269384i bk3: 0a 269384i bk4: 20a 269224i bk5: 24a 269188i bk6: 64a 268904i bk7: 64a 268897i bk8: 0a 269379i bk9: 0a 269380i bk10: 0a 269380i bk11: 0a 269380i bk12: 0a 269382i bk13: 0a 269382i bk14: 0a 269382i bk15: 0a 269382i 
dram_util_bins: 0 0 0 0 0 0 0 0 0 0
dram_eff_bins: 0 0 0 0 0 0 0 0 0 0
mrqq: max=2 avg=0.000133639
Memory Partition 5: 
Cache L2_bank_010:
MSHR contents

Cache L2_bank_011:
MSHR contents

In Dram Latency Queue (total = 0): 
DRAM[5]: 16 bks, busW=4 BL=8 CL=12, tRRD=2 tCCD=6, tRCD=12 tRAS=28 tRP=12 tRC=40
n_cmd=269382 n_nop=269119 n_act=4 n_pre=0 n_req=173 n_rd=172 n_write=87 bw_util=0.001923
n_activity=2271 dram_eff=0.2281
bk0: 0a 269382i bk1: 0a 269384i bk2: 0a 269384i bk3: 0a 269384i bk4: 20a 269223i bk5: 24a 269190i bk6: 64a 268890i bk7: 64a 268899i bk8: 0a 269379i bk9: 0a 269380i bk10: 0a 269381i bk11: 0a 269381i bk12: 0a 269381i bk13: 0a 269381i bk14: 0a 269381i bk15: 0a 269382i 
dram_util_bins: 0 0 0 0 0 0 0 0 0 0
dram_eff_bins: 0 0 0 0 0 0 0 0 0 0
mrqq: max=1 avg=0.000144776

========= L2 cache stats =========
L2_cache_bank[0]: Access = 213, Miss = 45, Miss_rate = 0.211, Pending_hits = 10, Reservation_fails = 333
L2_cache_bank[1]: Access = 168, Miss = 42, Miss_rate = 0.250, Pending_hits = 1, Reservation_fails = 0
L2_cache_bank[2]: Access = 198, Miss = 44, Miss_rate = 0.222, Pending_hits = 6, Reservation_fails = 111
L2_cache_bank[3]: Access = 168, Miss = 42, Miss_rate = 0.250, Pending_hits = 3, Reservation_fails = 0
L2_cache_bank[4]: Access = 168, Miss = 42, Miss_rate = 0.250, Pending_hits = 0, Reservation_fails = 0
L2_cache_bank[5]: Access = 176, Miss = 44, Miss_rate = 0.250, Pending_hits = 2, Reservation_fails = 0
L2_cache_bank[6]: Access = 168, Miss = 42, Miss_rate = 0.250, Pending_hits = 0, Reservation_fails = 0
L2_cache_bank[7]: Access = 176, Miss = 44, Miss_rate = 0.250, Pending_hits = 2, Reservation_fails = 0
L2_cache_bank[8]: Access = 168, Miss = 42, Miss_rate = 0.250, Pending_hits = 0, Reservation_fails = 0
L2_cache_bank[9]: Access = 176, Miss = 44, Miss_rate = 0.250, Pending_hits = 1, Reservation_fails = 0
L2_cache_bank[10]: Access = 168, Miss = 42, Miss_rate = 0.250, Pending_hits = 0, Reservation_fails = 0
L2_cache_bank[11]: Access = 176, Miss = 44, Miss_rate = 0.250, Pending_hits = 1, Reservation_fails = 0
L2_total_cache_accesses = 2123
L2_total_cache_misses = 517
L2_total_cache_miss_rate = 0.2435
L2_total_cache_pending_hits = 26
L2_total_cache_reservation_fails = 444
L2_total_cache_breakdown:
	L2_cache_stats_breakdown[CONST_ACC_R][HIT] = 11
	L2_cache_stats_breakdown[CONST_ACC_R][HIT_RESERVED] = 3
	L2_cache_stats_breakdown[CONST_ACC_R][MISS] = 1
	L2_cache_stats_breakdown[CONST_ACC_R][RESERVATION_FAIL] = 109
	L2_cache_stats_breakdown[GLOBAL_ACC_W][HIT] = 1523
	L2_cache_stats_breakdown[GLOBAL_ACC_W][HIT_RESERVED] = 13
	L2_cache_stats_breakdown[GLOBAL_ACC_W][MISS] = 512
	L2_cache_stats_breakdown[INST_ACC_R][HIT] = 46
	L2_cache_stats_breakdown[INST_ACC_R][HIT_RESERVED] = 10
	L2_cache_stats_breakdown[INST_ACC_R][MISS] = 4
	L2_cache_stats_breakdown[INST_ACC_R][RESERVATION_FAIL] = 335
L2_cache_data_port_util = 0.001
L2_cache_fill_port_util = 0.001

icnt_total_pkts_mem_to_simt=2393
icnt_total_pkts_simt_to_mem=4171
LD_mem_lat_dist  0 0 0 0 0 0 0 0 0 0 0 0 0 0 0 0 0 0 0 0 0 0 0 0 0 0 0
ST_mem_lat_dist  0 0 0 0 0 0 0 0 0 0 0 0 0 0 0 0 0 0 0 0 0 0 0 0 0 0 0
----------------------------Interconnect-DETAILS--------------------------------
Class 0:
Packet latency average = 6.7513
	minimum = 6
	maximum = 34
Network latency average = 6.67593
	minimum = 6
	maximum = 34
Slowest packet = 14
Flit latency average = 6.21664
	minimum = 6
	maximum = 34
Slowest flit = 14
Fragmentation average = 0
	minimum = 0
	maximum = 0
Injected packet rate average = 0.000770584
	minimum = 0.000612511 (at node 12)
	maximum = 0.00104372 (at node 15)
Accepted packet rate average = 0.000770584
	minimum = 0.000612511 (at node 12)
	maximum = 0.00104372 (at node 15)
Injected flit rate average = 0.00119127
	minimum = 0.000823215 (at node 16)
	maximum = 0.00177873 (at node 15)
Accepted flit rate average= 0.00119127
	minimum = 0.000700712 (at node 12)
	maximum = 0.00186693 (at node 15)
Injected packet length average = 1.54593
Accepted packet length average = 1.54593
Total in-flight flits = 0 (0 measured)
====== Overall Traffic Statistics ======
====== Traffic class 0 ======
Packet latency average = 6.7513 (1 samples)
	minimum = 6 (1 samples)
	maximum = 34 (1 samples)
Network latency average = 6.67593 (1 samples)
	minimum = 6 (1 samples)
	maximum = 34 (1 samples)
Flit latency average = 6.21664 (1 samples)
	minimum = 6 (1 samples)
	maximum = 34 (1 samples)
Fragmentation average = 0 (1 samples)
	minimum = 0 (1 samples)
	maximum = 0 (1 samples)
Injected packet rate average = 0.000770584 (1 samples)
	minimum = 0.000612511 (1 samples)
	maximum = 0.00104372 (1 samples)
Accepted packet rate average = 0.000770584 (1 samples)
	minimum = 0.000612511 (1 samples)
	maximum = 0.00104372 (1 samples)
Injected flit rate average = 0.00119127 (1 samples)
	minimum = 0.000823215 (1 samples)
	maximum = 0.00177873 (1 samples)
Accepted flit rate average = 0.00119127 (1 samples)
	minimum = 0.000700712 (1 samples)
	maximum = 0.00186693 (1 samples)
Injected packet size average = 1.54593 (1 samples)
Accepted packet size average = 1.54593 (1 samples)
Hops average = 1 (1 samples)
----------------------------END-of-Interconnect-DETAILS-------------------------


gpgpu_simulation_time = 0 days, 0 hrs, 2 min, 44 sec (164 sec)
gpgpu_simulation_rate = 319875 (inst/sec)
gpgpu_simulation_rate = 1244 (cycle/sec)
