

        *** GPGPU-Sim Simulator Version 3.2.2  [build 17315] ***


GPGPU-Sim PTX: simulation mode 0 (can change with PTX_SIM_MODE_FUNC environment variable:
               1=functional simulation only, 0=detailed performance simulator)
GPGPU-Sim: Configuration options:

-network_mode                           1 # Interconnection network mode
-inter_config_file   config_fermi_islip.icnt # Interconnection network config file
-gpgpu_ptx_use_cuobjdump                    1 # Use cuobjdump to extract ptx and sass from binaries
-gpgpu_experimental_lib_support                    0 # Try to extract code from cuda libraries [Broken because of unknown cudaGetExportTable]
-gpgpu_ptx_convert_to_ptxplus                    0 # Convert SASS (native ISA) to ptxplus and run ptxplus
-gpgpu_ptx_force_max_capability                   20 # Force maximum compute capability
-gpgpu_ptx_inst_debug_to_file                    0 # Dump executed instructions' debug information to file
-gpgpu_ptx_inst_debug_file       inst_debug.txt # Executed instructions' debug output file
-gpgpu_ptx_inst_debug_thread_uid                    1 # Thread UID for executed instructions' debug output
-gpgpu_simd_model                       1 # 1 = post-dominator
-gpgpu_shader_core_pipeline              1536:32 # shader core pipeline config, i.e., {<nthread>:<warpsize>}
-gpgpu_tex_cache:l1  4:128:24,L:R:m:N,F:128:4,128:2 # per-shader L1 texture cache  (READ-ONLY) config  {<nsets>:<bsize>:<assoc>,<rep>:<wr>:<alloc>:<wr_alloc>,<mshr>:<N>:<merge>,<mq>:<rf>}
-gpgpu_const_cache:l1 64:64:2,L:R:f:N,A:2:32,4 # per-shader L1 constant memory cache  (READ-ONLY) config  {<nsets>:<bsize>:<assoc>,<rep>:<wr>:<alloc>:<wr_alloc>,<mshr>:<N>:<merge>,<mq>} 
-gpgpu_cache:il1     4:128:4,L:R:f:N,A:2:32,4 # shader L1 instruction cache config  {<nsets>:<bsize>:<assoc>,<rep>:<wr>:<alloc>:<wr_alloc>,<mshr>:<N>:<merge>,<mq>} 
-gpgpu_cache:dl1     32:128:4,L:L:m:N,A:32:8,8 # per-shader L1 data cache config  {<nsets>:<bsize>:<assoc>,<rep>:<wr>:<alloc>:<wr_alloc>,<mshr>:<N>:<merge>,<mq> | none}
-gpgpu_cache:dl1PrefL1                 none # per-shader L1 data cache config  {<nsets>:<bsize>:<assoc>,<rep>:<wr>:<alloc>:<wr_alloc>,<mshr>:<N>:<merge>,<mq> | none}
-gpgpu_cache:dl1PreShared                 none # per-shader L1 data cache config  {<nsets>:<bsize>:<assoc>,<rep>:<wr>:<alloc>:<wr_alloc>,<mshr>:<N>:<merge>,<mq> | none}
-gmem_skip_L1D                          0 # global memory access skip L1D cache (implements -Xptxas -dlcm=cg, default=no skip)
-gpgpu_perfect_mem                      0 # enable perfect memory mode (no cache miss)
-n_regfile_gating_group                    4 # group of lanes that should be read/written together)
-gpgpu_clock_gated_reg_file                    0 # enable clock gated reg file for power calculations
-gpgpu_clock_gated_lanes                    0 # enable clock gated lanes for power calculations
-gpgpu_shader_registers                32768 # Number of registers per shader core. Limits number of concurrent CTAs. (default 8192)
-gpgpu_shader_cta                       8 # Maximum number of concurrent CTAs in shader (default 8)
-gpgpu_n_clusters                      15 # number of processing clusters
-gpgpu_n_cores_per_cluster                    1 # number of simd cores per cluster
-gpgpu_n_cluster_ejection_buffer_size                    8 # number of packets in ejection buffer
-gpgpu_n_ldst_response_buffer_size                    2 # number of response packets in ld/st unit ejection buffer
-gpgpu_shmem_size                   16384 # Size of shared memory per shader core (default 16kB)
-gpgpu_shmem_size                   49152 # Size of shared memory per shader core (default 16kB)
-gpgpu_shmem_size_PrefL1                16384 # Size of shared memory per shader core (default 16kB)
-gpgpu_shmem_size_PrefShared                16384 # Size of shared memory per shader core (default 16kB)
-gpgpu_shmem_num_banks                   32 # Number of banks in the shared memory in each shader core (default 16)
-gpgpu_shmem_limited_broadcast                    0 # Limit shared memory to do one broadcast per cycle (default on)
-gpgpu_shmem_warp_parts                    1 # Number of portions a warp is divided into for shared memory bank conflict check 
-gpgpu_warpdistro_shader                   -1 # Specify which shader core to collect the warp size distribution from
-gpgpu_warp_issue_shader                    0 # Specify which shader core to collect the warp issue distribution from
-gpgpu_local_mem_map                    1 # Mapping from local memory space address to simulated GPU physical address space (default = enabled)
-gpgpu_num_reg_banks                   16 # Number of register banks (default = 8)
-gpgpu_reg_bank_use_warp_id                    0 # Use warp ID in mapping registers to banks (default = off)
-gpgpu_operand_collector_num_units_sp                    6 # number of collector units (default = 4)
-gpgpu_operand_collector_num_units_sfu                    8 # number of collector units (default = 4)
-gpgpu_operand_collector_num_units_mem                    2 # number of collector units (default = 2)
-gpgpu_operand_collector_num_units_gen                    0 # number of collector units (default = 0)
-gpgpu_operand_collector_num_in_ports_sp                    2 # number of collector unit in ports (default = 1)
-gpgpu_operand_collector_num_in_ports_sfu                    1 # number of collector unit in ports (default = 1)
-gpgpu_operand_collector_num_in_ports_mem                    1 # number of collector unit in ports (default = 1)
-gpgpu_operand_collector_num_in_ports_gen                    0 # number of collector unit in ports (default = 0)
-gpgpu_operand_collector_num_out_ports_sp                    2 # number of collector unit in ports (default = 1)
-gpgpu_operand_collector_num_out_ports_sfu                    1 # number of collector unit in ports (default = 1)
-gpgpu_operand_collector_num_out_ports_mem                    1 # number of collector unit in ports (default = 1)
-gpgpu_operand_collector_num_out_ports_gen                    0 # number of collector unit in ports (default = 0)
-gpgpu_coalesce_arch                   13 # Coalescing arch (default = 13, anything else is off for now)
-gpgpu_num_sched_per_core                    2 # Number of warp schedulers per core
-gpgpu_max_insn_issue_per_warp                    1 # Max number of instructions that can be issued per warp in one cycle by scheduler
-gpgpu_simt_core_sim_order                    1 # Select the simulation order of cores in a cluster (0=Fix, 1=Round-Robin)
-gpgpu_pipeline_widths        2,1,1,2,1,1,2 # Pipeline widths ID_OC_SP,ID_OC_SFU,ID_OC_MEM,OC_EX_SP,OC_EX_SFU,OC_EX_MEM,EX_WB
-gpgpu_num_sp_units                     2 # Number of SP units (default=1)
-gpgpu_num_sfu_units                    1 # Number of SF units (default=1)
-gpgpu_num_mem_units                    1 # Number if ldst units (default=1) WARNING: not hooked up to anything
-gpgpu_scheduler                      gto # Scheduler configuration: < lrr | gto | two_level_active > If two_level_active:<num_active_warps>:<inner_prioritization>:<outer_prioritization>For complete list of prioritization values see shader.h enum scheduler_prioritization_typeDefault: gto
-gpgpu_dram_scheduler                    1 # 0 = fifo, 1 = FR-FCFS (defaul)
-gpgpu_dram_partition_queues              8:8:8:8 # i2$:$2d:d2$:$2i
-l2_ideal                               0 # Use a ideal L2 cache that always hit
-gpgpu_cache:dl2     64:128:8,L:B:m:W,A:32:4,4:0,32 # unified banked L2 data cache config  {<nsets>:<bsize>:<assoc>,<rep>:<wr>:<alloc>:<wr_alloc>,<mshr>:<N>:<merge>,<mq>}
-gpgpu_cache:dl2_texture_only                    0 # L2 cache used for texture only
-gpgpu_n_mem                            6 # number of memory modules (e.g. memory controllers) in gpu
-gpgpu_n_sub_partition_per_mchannel                    2 # number of memory subpartition in each memory module
-gpgpu_n_mem_per_ctrlr                    2 # number of memory chips per memory controller
-gpgpu_memlatency_stat                   14 # track and display latency statistics 0x2 enables MC, 0x4 enables queue logs
-gpgpu_frfcfs_dram_sched_queue_size                   16 # 0 = unlimited (default); # entries per chip
-gpgpu_dram_return_queue_size                  116 # 0 = unlimited (default); # entries per chip
-gpgpu_dram_buswidth                    4 # default = 4 bytes (8 bytes per cycle at DDR)
-gpgpu_dram_burst_length                    8 # Burst length of each DRAM request (default = 4 data bus cycle)
-dram_data_command_freq_ratio                    4 # Frequency ratio between DRAM data bus and command bus (default = 2 times, i.e. DDR)
-gpgpu_dram_timing_opt nbk=16:CCD=2:RRD=6:RCD=12:RAS=28:RP=12:RC=40: CL=12:WL=4:CDLR=5:WR=12:nbkgrp=4:CCDL=3:RTPL=2 # DRAM timing parameters = {nbk:tCCD:tRRD:tRCD:tRAS:tRP:tRC:CL:WL:tCDLR:tWR:nbkgrp:tCCDL:tRTPL}
-rop_latency                          120 # ROP queue latency (default 85)
-dram_latency                         100 # DRAM latency (default 30)
-gpgpu_mem_addr_mapping dramid@8;00000000.00000000.00000000.00000000.0000RRRR.RRRRRRRR.BBBCCCCB.CCSSSSSS # mapping memory address to dram model {dramid@<start bit>;<memory address map>}
-gpgpu_mem_addr_test                    0 # run sweep test to check address mapping for aliased address
-gpgpu_mem_address_mask                    1 # 0 = old addressing mask, 1 = new addressing mask, 2 = new add. mask + flipped bank sel and chip sel bits
-gpuwattch_xml_file         gpuwattch.xml # GPUWattch XML file
-power_simulation_enabled                    0 # Turn on power simulator (1=On, 0=Off)
-power_per_cycle_dump                    0 # Dump detailed power output each cycle
-power_trace_enabled                    0 # produce a file for the power trace (1=On, 0=Off)
-power_trace_zlevel                     6 # Compression level of the power trace output log (0=no comp, 9=highest)
-steady_power_levels_enabled                    0 # produce a file for the steady power levels (1=On, 0=Off)
-steady_state_definition                  8:4 # allowed deviation:number of samples
-gpgpu_max_cycle                        0 # terminates gpu simulation early (0 = no limit)
-gpgpu_max_insn                         0 # terminates gpu simulation early (0 = no limit)
-gpgpu_max_cta                          0 # terminates gpu simulation early (0 = no limit)
-gpgpu_runtime_stat                   500 # display runtime statistics such as dram utilization {<freq>:<flag>}
-liveness_message_freq                    1 # Minimum number of seconds between simulation liveness messages (0 = always print)
-gpgpu_flush_l1_cache                    0 # Flush L1 cache at the end of each kernel call
-gpgpu_flush_l2_cache                    0 # Flush L2 cache at the end of each kernel call
-gpgpu_deadlock_detect                    1 # Stop the simulation at deadlock (1=on (default), 0=off)
-gpgpu_ptx_instruction_classification                    0 # if enabled will classify ptx instruction types per kernel (Max 255 kernels now)
-gpgpu_ptx_sim_mode                     0 # Select between Performance (default) or Functional simulation (1)
-gpgpu_clock_domains 700.0:700.0:700.0:924.0 # Clock Domain Frequencies in MhZ {<Core Clock>:<ICNT Clock>:<L2 Clock>:<DRAM Clock>}
-gpgpu_max_concurrent_kernel                    8 # maximum kernels that can run concurrently on GPU
-gpgpu_cflog_interval                    0 # Interval between each snapshot in control flow logger
-visualizer_enabled                     0 # Turn on visualizer output (1=On, 0=Off)
-visualizer_outputfile                 NULL # Specifies the output log file for visualizer
-visualizer_zlevel                      6 # Compression level of the visualizer output log (0=no comp, 9=highest)
-trace_enabled                          0 # Turn on traces
-trace_components                    none # comma seperated list of traces to enable. Complete list found in trace_streams.tup. Default none
-trace_sampling_core                    0 # The core which is printed using CORE_DPRINTF. Default 0
-trace_sampling_memory_partition                   -1 # The memory partition which is printed using MEMPART_DPRINTF. Default -1 (i.e. all)
-enable_ptx_file_line_stats                    1 # Turn on PTX source line statistic profiling. (1 = On)
-ptx_line_stats_filename gpgpu_inst_stats.txt # Output file for PTX source line statistics.
-save_embedded_ptx                      0 # saves ptx files embedded in binary as <n>.ptx
-keep                                   0 # keep intermediate files created by GPGPU-Sim when interfacing with external programs
-gpgpu_ptx_save_converted_ptxplus                    0 # Saved converted ptxplus to a file
-ptx_opcode_latency_int         4,13,4,5,145 # Opcode latencies for integers <ADD,MAX,MUL,MAD,DIV>Default 1,1,19,25,145
-ptx_opcode_latency_fp          4,13,4,5,39 # Opcode latencies for single precision floating points <ADD,MAX,MUL,MAD,DIV>Default 1,1,1,1,30
-ptx_opcode_latency_dp         8,19,8,8,330 # Opcode latencies for double precision floating points <ADD,MAX,MUL,MAD,DIV>Default 8,8,8,8,335
-ptx_opcode_initiation_int            1,2,2,1,8 # Opcode initiation intervals for integers <ADD,MAX,MUL,MAD,DIV>Default 1,1,4,4,32
-ptx_opcode_initiation_fp            1,2,1,1,4 # Opcode initiation intervals for single precision floating points <ADD,MAX,MUL,MAD,DIV>Default 1,1,1,1,5
-ptx_opcode_initiation_dp         8,16,8,8,130 # Opcode initiation intervals for double precision floating points <ADD,MAX,MUL,MAD,DIV>Default 8,8,8,8,130
DRAM Timing Options:
nbk                                    16 # number of banks
CCD                                     2 # column to column delay
RRD                                     6 # minimal delay between activation of rows in different banks
RCD                                    12 # row to column delay
RAS                                    28 # time needed to activate row
RP                                     12 # time needed to precharge (deactivate) row
RC                                     40 # row cycle time
CDLR                                    5 # switching from write to read (changes tWTR)
WR                                     12 # last data-in to row precharge
CL                                     12 # CAS latency
WL                                      4 # Write latency
nbkgrp                                  4 # number of bank groups
CCDL                                    3 # column to column delay between accesses to different bank groups
RTPL                                    2 # read to precharge delay between accesses to different bank groups
Total number of memory sub partition = 12
addr_dec_mask[CHIP]  = 0000000000000000 	high:64 low:0
addr_dec_mask[BK]    = 000000000000e100 	high:16 low:8
addr_dec_mask[ROW]   = 000000000fff0000 	high:28 low:16
addr_dec_mask[COL]   = 0000000000001eff 	high:13 low:0
addr_dec_mask[BURST] = 000000000000003f 	high:6 low:0
sub_partition_id_mask = 0000000000000100
GPGPU-Sim uArch: clock freqs: 700000000.000000:700000000.000000:700000000.000000:924000000.000000
GPGPU-Sim uArch: clock periods: 0.00000000142857142857:0.00000000142857142857:0.00000000142857142857:0.00000000108225108225
*** Initializing Memory Statistics ***
GPGPU-Sim uArch: interconnect node map (shaderID+MemID to icntID)
GPGPU-Sim uArch: Memory nodes ID start from index: 15
GPGPU-Sim uArch:    0   1   2   3   4
GPGPU-Sim uArch:    5   6   7   8   9
GPGPU-Sim uArch:   10  11  12  13  14
GPGPU-Sim uArch:   15  16  17  18  19
GPGPU-Sim uArch:   20  21  22  23  24
GPGPU-Sim uArch:   25  26
GPGPU-Sim uArch: interconnect node reverse map (icntID to shaderID+MemID)
GPGPU-Sim uArch: Memory nodes start from ID: 15
GPGPU-Sim uArch:    0   1   2   3   4
GPGPU-Sim uArch:    5   6   7   8   9
GPGPU-Sim uArch:   10  11  12  13  14
GPGPU-Sim uArch:   15  16  17  18  19
GPGPU-Sim uArch:   20  21  22  23  24
GPGPU-Sim uArch:   25  26
35e4989e7e2383a1c0ff536b7ce586fc  /afs/tu-berlin.de/home/t/tobias.fuchs/irb-ubuntu/Dokumente/new4/MCS1415/CUDA/assignment1/gpumcs/gpu_out
GPGPU-Sim uArch: performance model initialization complete.
GPGPU-Sim PTX: __cudaRegisterFatBinary, fat_cubin_handle = 1, filename=gpu_julia.cu
self exe links to: /afs/tu-berlin.de/home/t/tobias.fuchs/irb-ubuntu/Dokumente/new4/MCS1415/CUDA/assignment1/gpumcs/gpu_out
Running md5sum using "md5sum /afs/tu-berlin.de/home/t/tobias.fuchs/irb-ubuntu/Dokumente/new4/MCS1415/CUDA/assignment1/gpumcs/gpu_out "
Running cuobjdump using "$CUDA_INSTALL_PATH/bin/cuobjdump -ptx -elf -sass /afs/tu-berlin.de/home/t/tobias.fuchs/irb-ubuntu/Dokumente/new4/MCS1415/CUDA/assignment1/gpumcs/gpu_out > _cuobjdump_complete_output_khd3HO"
Parsing file _cuobjdump_complete_output_khd3HO
######### cuobjdump parser ########
## Adding new section ELF
Adding arch: sm_10
Adding identifier: gpu_julia.cu
## Adding new section PTX
Adding ptx filename: _cuobjdump_1.ptx
Adding arch: sm_10
Adding identifier: gpu_julia.cu
Done parsing!!!
GPGPU-Sim PTX: __cudaRegisterFunction _Z12calc_fractaliiffPh : hostFun 0x0x401073, fat_cubin_handle = 1
GPGPU-Sim PTX: instruction assembly for function '_Z12calc_fractaliiffPh'...   done.
GPGPU-Sim PTX: finding reconvergence points for '_Z12calc_fractaliiffPh'...
GPGPU-Sim PTX: Finding dominators for '_Z12calc_fractaliiffPh'...
GPGPU-Sim PTX: Finding immediate dominators for '_Z12calc_fractaliiffPh'...
GPGPU-Sim PTX: Finding postdominators for '_Z12calc_fractaliiffPh'...
GPGPU-Sim PTX: Finding immediate postdominators for '_Z12calc_fractaliiffPh'...
GPGPU-Sim PTX: pre-decoding instructions for '_Z12calc_fractaliiffPh'...
GPGPU-Sim PTX: reconvergence points for _Z12calc_fractaliiffPh...
GPGPU-Sim PTX:  1 (potential) branch divergence @  PC=0x100 (_1.ptx:101) @%p1 bra $Lt_0_258;
GPGPU-Sim PTX:    immediate post dominator      @  PC=0x158 (_1.ptx:117) ld.param.s32 %r4, [__cudaparm__Z12calc_fractaliiffPh_width];
GPGPU-Sim PTX:  2 (potential) branch divergence @  PC=0x150 (_1.ptx:114) @%p2 bra $Lt_0_2306;
GPGPU-Sim PTX:    immediate post dominator      @  PC=0x158 (_1.ptx:117) ld.param.s32 %r4, [__cudaparm__Z12calc_fractaliiffPh_width];
GPGPU-Sim PTX: ... end of reconvergence points for _Z12calc_fractaliiffPh
GPGPU-Sim PTX: ... done pre-decoding instructions for '_Z12calc_fractaliiffPh'.
GPGPU-Sim PTX: finished parsing EMBEDDED .ptx file _1.ptx
Adding _cuobjdump_1.ptx with cubin handle 1
GPGPU-Sim PTX: extracting embedded .ptx to temporary file "_ptx_fl5q4D"
Running: cat _ptx_fl5q4D | sed 's/.version 1.5/.version 1.4/' | sed 's/, texmode_independent//' | sed 's/\(\.extern \.const\[1\] .b8 \w\+\)\[\]/\1\[1\]/' | sed 's/const\[.\]/const\[0\]/g' > _ptx2_C6agut
GPGPU-Sim PTX: generating ptxinfo using "$CUDA_INSTALL_PATH/bin/ptxas --gpu-name=sm_20 -v _ptx2_C6agut --output-file  /dev/null 2> _ptx_fl5q4Dinfo"
GPGPU-Sim PTX: Kernel '_Z12calc_fractaliiffPh' : regs=9, lmem=0, smem=0, cmem=60
GPGPU-Sim PTX: removing ptxinfo using "rm -f _ptx_fl5q4D _ptx2_C6agut _ptx_fl5q4Dinfo"
GPGPU-Sim PTX: loading globals with explicit initializers... 
GPGPU-Sim PTX: finished loading globals (0 bytes total).
GPGPU-Sim PTX: loading constants with explicit initializers...  done.

GPGPU-Sim PTX: cudaLaunch for 0x0x401073 (mode=performance simulation) on stream 0
GPGPU-Sim PTX: pushing kernel '_Z12calc_fractaliiffPh' to stream 0, gridDim= (64,64,1) blockDim = (4,4,1) 
kernel '_Z12calc_fractaliiffPh' transfer to GPU hardware scheduler
GPGPU-Sim uArch: Shader 1 bind to kernel 1 '_Z12calc_fractaliiffPh'
GPGPU-Sim uArch: CTA/core = 8, limited by: cta_limit
GPGPU-Sim uArch: core:  1, cta: 0 initialized @(1,0)
GPGPU-Sim uArch: Shader 2 bind to kernel 1 '_Z12calc_fractaliiffPh'
GPGPU-Sim uArch: core:  2, cta: 0 initialized @(1,0)
GPGPU-Sim uArch: Shader 3 bind to kernel 1 '_Z12calc_fractaliiffPh'
GPGPU-Sim uArch: core:  3, cta: 0 initialized @(1,0)
GPGPU-Sim uArch: Shader 4 bind to kernel 1 '_Z12calc_fractaliiffPh'
GPGPU-Sim uArch: core:  4, cta: 0 initialized @(1,0)
GPGPU-Sim uArch: Shader 5 bind to kernel 1 '_Z12calc_fractaliiffPh'
GPGPU-Sim uArch: core:  5, cta: 0 initialized @(1,0)
GPGPU-Sim uArch: Shader 6 bind to kernel 1 '_Z12calc_fractaliiffPh'
GPGPU-Sim uArch: core:  6, cta: 0 initialized @(1,0)
GPGPU-Sim uArch: Shader 7 bind to kernel 1 '_Z12calc_fractaliiffPh'
GPGPU-Sim uArch: core:  7, cta: 0 initialized @(1,0)
GPGPU-Sim uArch: Shader 8 bind to kernel 1 '_Z12calc_fractaliiffPh'
GPGPU-Sim uArch: core:  8, cta: 0 initialized @(1,0)
GPGPU-Sim uArch: Shader 9 bind to kernel 1 '_Z12calc_fractaliiffPh'
GPGPU-Sim uArch: core:  9, cta: 0 initialized @(1,0)
GPGPU-Sim uArch: Shader 10 bind to kernel 1 '_Z12calc_fractaliiffPh'
GPGPU-Sim uArch: core: 10, cta: 0 initialized @(1,0)
GPGPU-Sim uArch: Shader 11 bind to kernel 1 '_Z12calc_fractaliiffPh'
GPGPU-Sim uArch: core: 11, cta: 0 initialized @(1,0)
GPGPU-Sim uArch: Shader 12 bind to kernel 1 '_Z12calc_fractaliiffPh'
GPGPU-Sim uArch: core: 12, cta: 0 initialized @(1,0)
GPGPU-Sim uArch: Shader 13 bind to kernel 1 '_Z12calc_fractaliiffPh'
GPGPU-Sim uArch: core: 13, cta: 0 initialized @(1,0)
GPGPU-Sim uArch: Shader 14 bind to kernel 1 '_Z12calc_fractaliiffPh'
GPGPU-Sim uArch: core: 14, cta: 0 initialized @(1,0)
GPGPU-Sim uArch: Shader 0 bind to kernel 1 '_Z12calc_fractaliiffPh'
GPGPU-Sim uArch: core:  0, cta: 0 initialized @(1,0)
GPGPU-Sim uArch: core:  1, cta: 1 initialized @(2,0)
GPGPU-Sim uArch: core:  2, cta: 1 initialized @(2,0)
GPGPU-Sim uArch: core:  3, cta: 1 initialized @(2,0)
GPGPU-Sim uArch: core:  4, cta: 1 initialized @(2,0)
GPGPU-Sim uArch: core:  5, cta: 1 initialized @(2,0)
GPGPU-Sim uArch: core:  6, cta: 1 initialized @(2,0)
GPGPU-Sim uArch: core:  7, cta: 1 initialized @(2,0)
GPGPU-Sim uArch: core:  8, cta: 1 initialized @(2,0)
GPGPU-Sim uArch: core:  9, cta: 1 initialized @(2,0)
GPGPU-Sim uArch: core: 10, cta: 1 initialized @(2,0)
GPGPU-Sim uArch: core: 11, cta: 1 initialized @(2,0)
GPGPU-Sim uArch: core: 12, cta: 1 initialized @(2,0)
GPGPU-Sim uArch: core: 13, cta: 1 initialized @(2,0)
GPGPU-Sim uArch: core: 14, cta: 1 initialized @(2,0)
GPGPU-Sim uArch: core:  0, cta: 1 initialized @(2,0)
GPGPU-Sim uArch: core:  1, cta: 2 initialized @(3,0)
GPGPU-Sim uArch: core:  2, cta: 2 initialized @(3,0)
GPGPU-Sim uArch: core:  3, cta: 2 initialized @(3,0)
GPGPU-Sim uArch: core:  4, cta: 2 initialized @(3,0)
GPGPU-Sim uArch: core:  5, cta: 2 initialized @(3,0)
GPGPU-Sim uArch: core:  6, cta: 2 initialized @(3,0)
GPGPU-Sim uArch: core:  7, cta: 2 initialized @(3,0)
GPGPU-Sim uArch: core:  8, cta: 2 initialized @(3,0)
GPGPU-Sim uArch: core:  9, cta: 2 initialized @(3,0)
GPGPU-Sim uArch: core: 10, cta: 2 initialized @(3,0)
GPGPU-Sim uArch: core: 11, cta: 2 initialized @(3,0)
GPGPU-Sim uArch: core: 12, cta: 2 initialized @(3,0)
GPGPU-Sim uArch: core: 13, cta: 2 initialized @(3,0)
GPGPU-Sim uArch: core: 14, cta: 2 initialized @(3,0)
GPGPU-Sim uArch: core:  0, cta: 2 initialized @(3,0)
GPGPU-Sim uArch: core:  1, cta: 3 initialized @(4,0)
GPGPU-Sim uArch: core:  2, cta: 3 initialized @(4,0)
GPGPU-Sim uArch: core:  3, cta: 3 initialized @(4,0)
GPGPU-Sim uArch: core:  4, cta: 3 initialized @(4,0)
GPGPU-Sim uArch: core:  5, cta: 3 initialized @(4,0)
GPGPU-Sim uArch: core:  6, cta: 3 initialized @(4,0)
GPGPU-Sim uArch: core:  7, cta: 3 initialized @(4,0)
GPGPU-Sim uArch: core:  8, cta: 3 initialized @(4,0)
GPGPU-Sim uArch: core:  9, cta: 3 initialized @(4,0)
GPGPU-Sim uArch: core: 10, cta: 3 initialized @(4,0)
GPGPU-Sim uArch: core: 11, cta: 3 initialized @(4,0)
GPGPU-Sim uArch: core: 12, cta: 3 initialized @(4,0)
GPGPU-Sim uArch: core: 13, cta: 3 initialized @(4,0)
GPGPU-Sim uArch: core: 14, cta: 3 initialized @(4,0)
GPGPU-Sim uArch: core:  0, cta: 3 initialized @(4,0)
GPGPU-Sim uArch: core:  1, cta: 4 initialized @(5,0)
GPGPU-Sim uArch: core:  2, cta: 4 initialized @(5,0)
GPGPU-Sim uArch: core:  3, cta: 4 initialized @(5,0)
GPGPU-Sim uArch: core:  4, cta: 4 initialized @(5,0)
GPGPU-Sim uArch: core:  5, cta: 4 initialized @(5,0)
GPGPU-Sim uArch: core:  6, cta: 4 initialized @(5,0)
GPGPU-Sim uArch: core:  7, cta: 4 initialized @(5,0)
GPGPU-Sim uArch: core:  8, cta: 4 initialized @(5,0)
GPGPU-Sim uArch: core:  9, cta: 4 initialized @(5,0)
GPGPU-Sim uArch: core: 10, cta: 4 initialized @(5,0)
GPGPU-Sim uArch: core: 11, cta: 4 initialized @(5,0)
GPGPU-Sim uArch: core: 12, cta: 4 initialized @(5,0)
GPGPU-Sim uArch: core: 13, cta: 4 initialized @(5,0)
GPGPU-Sim uArch: core: 14, cta: 4 initialized @(5,0)
GPGPU-Sim uArch: core:  0, cta: 4 initialized @(5,0)
GPGPU-Sim uArch: core:  1, cta: 5 initialized @(6,0)
GPGPU-Sim uArch: core:  2, cta: 5 initialized @(6,0)
GPGPU-Sim uArch: core:  3, cta: 5 initialized @(6,0)
GPGPU-Sim uArch: core:  4, cta: 5 initialized @(6,0)
GPGPU-Sim uArch: core:  5, cta: 5 initialized @(6,0)
GPGPU-Sim uArch: core:  6, cta: 5 initialized @(6,0)
GPGPU-Sim uArch: core:  7, cta: 5 initialized @(6,0)
GPGPU-Sim uArch: core:  8, cta: 5 initialized @(6,0)
GPGPU-Sim uArch: core:  9, cta: 5 initialized @(6,0)
GPGPU-Sim uArch: core: 10, cta: 5 initialized @(6,0)
GPGPU-Sim uArch: core: 11, cta: 5 initialized @(6,0)
GPGPU-Sim uArch: core: 12, cta: 5 initialized @(6,0)
GPGPU-Sim uArch: core: 13, cta: 5 initialized @(6,0)
GPGPU-Sim uArch: core: 14, cta: 5 initialized @(6,0)
GPGPU-Sim uArch: core:  0, cta: 5 initialized @(6,0)
GPGPU-Sim uArch: core:  1, cta: 6 initialized @(7,0)
GPGPU-Sim uArch: core:  2, cta: 6 initialized @(7,0)
GPGPU-Sim uArch: core:  3, cta: 6 initialized @(7,0)
GPGPU-Sim uArch: core:  4, cta: 6 initialized @(7,0)
GPGPU-Sim uArch: core:  5, cta: 6 initialized @(7,0)
GPGPU-Sim uArch: core:  6, cta: 6 initialized @(7,0)
GPGPU-Sim uArch: core:  7, cta: 6 initialized @(7,0)
GPGPU-Sim uArch: core:  8, cta: 6 initialized @(7,0)
GPGPU-Sim uArch: core:  9, cta: 6 initialized @(7,0)
GPGPU-Sim uArch: core: 10, cta: 6 initialized @(7,0)
GPGPU-Sim uArch: core: 11, cta: 6 initialized @(7,0)
GPGPU-Sim uArch: core: 12, cta: 6 initialized @(7,0)
GPGPU-Sim uArch: core: 13, cta: 6 initialized @(7,0)
GPGPU-Sim uArch: core: 14, cta: 6 initialized @(7,0)
GPGPU-Sim uArch: core:  0, cta: 6 initialized @(7,0)
GPGPU-Sim uArch: core:  1, cta: 7 initialized @(8,0)
GPGPU-Sim uArch: core:  2, cta: 7 initialized @(8,0)
GPGPU-Sim uArch: core:  3, cta: 7 initialized @(8,0)
GPGPU-Sim uArch: core:  4, cta: 7 initialized @(8,0)
GPGPU-Sim uArch: core:  5, cta: 7 initialized @(8,0)
GPGPU-Sim uArch: core:  6, cta: 7 initialized @(8,0)
GPGPU-Sim uArch: core:  7, cta: 7 initialized @(8,0)
GPGPU-Sim uArch: core:  8, cta: 7 initialized @(8,0)
GPGPU-Sim uArch: core:  9, cta: 7 initialized @(8,0)
GPGPU-Sim uArch: core: 10, cta: 7 initialized @(8,0)
GPGPU-Sim uArch: core: 11, cta: 7 initialized @(8,0)
GPGPU-Sim uArch: core: 12, cta: 7 initialized @(8,0)
GPGPU-Sim uArch: core: 13, cta: 7 initialized @(8,0)
GPGPU-Sim uArch: core: 14, cta: 7 initialized @(8,0)
GPGPU-Sim uArch: core:  0, cta: 7 initialized @(8,0)
GPGPU-Sim uArch: cycles simulated: 500  inst.: 15360 (ipc=30.7) sim_rate=15360 (inst/sec) elapsed = 0:0:00:01 / Fri Jan 16 05:37:09 2015
GPGPU-Sim PTX: 100000 instructions simulated : ctaid=(24,1,0) tid=(3,3,0)
GPGPU-Sim PTX: 200000 instructions simulated : ctaid=(34,1,0) tid=(0,1,0)
GPGPU-Sim PTX: 300000 instructions simulated : ctaid=(38,1,0) tid=(0,2,0)
GPGPU-Sim uArch: Shader 2 finished CTA #0 (2154,0), 7 CTAs running
GPGPU-Sim uArch: core:  2, cta: 0 initialized @(2155,0)
GPGPU-Sim uArch: Shader 4 finished CTA #0 (2170,0), 7 CTAs running
GPGPU-Sim uArch: core:  4, cta: 0 initialized @(2171,0)
GPGPU-Sim uArch: Shader 6 finished CTA #0 (2173,0), 7 CTAs running
GPGPU-Sim uArch: Shader 7 finished CTA #0 (2173,0), 7 CTAs running
GPGPU-Sim uArch: core:  6, cta: 0 initialized @(2174,0)
GPGPU-Sim uArch: core:  7, cta: 0 initialized @(2174,0)
GPGPU-Sim uArch: Shader 8 finished CTA #0 (2175,0), 7 CTAs running
GPGPU-Sim uArch: core:  8, cta: 0 initialized @(2176,0)
GPGPU-Sim uArch: Shader 9 finished CTA #0 (2177,0), 7 CTAs running
GPGPU-Sim uArch: core:  9, cta: 0 initialized @(2178,0)
GPGPU-Sim uArch: Shader 1 finished CTA #0 (2180,0), 7 CTAs running
GPGPU-Sim uArch: Shader 5 finished CTA #4 (2180,0), 7 CTAs running
GPGPU-Sim uArch: core:  1, cta: 0 initialized @(2181,0)
GPGPU-Sim uArch: core:  5, cta: 4 initialized @(2181,0)
GPGPU-Sim uArch: Shader 5 finished CTA #0 (2184,0), 7 CTAs running
GPGPU-Sim uArch: core:  5, cta: 0 initialized @(2185,0)
GPGPU-Sim uArch: Shader 3 finished CTA #0 (2185,0), 7 CTAs running
GPGPU-Sim uArch: core:  3, cta: 0 initialized @(2186,0)
GPGPU-Sim uArch: Shader 9 finished CTA #4 (2196,0), 7 CTAs running
GPGPU-Sim uArch: core:  9, cta: 4 initialized @(2197,0)
GPGPU-Sim uArch: Shader 7 finished CTA #4 (2204,0), 7 CTAs running
GPGPU-Sim uArch: Shader 10 finished CTA #0 (2204,0), 7 CTAs running
GPGPU-Sim uArch: Shader 12 finished CTA #4 (2204,0), 7 CTAs running
GPGPU-Sim uArch: core: 10, cta: 0 initialized @(2205,0)
GPGPU-Sim uArch: core: 12, cta: 4 initialized @(2205,0)
GPGPU-Sim uArch: core:  7, cta: 4 initialized @(2205,0)
GPGPU-Sim uArch: Shader 10 finished CTA #4 (2207,0), 7 CTAs running
GPGPU-Sim uArch: core: 10, cta: 4 initialized @(2208,0)
GPGPU-Sim uArch: Shader 11 finished CTA #4 (2210,0), 7 CTAs running
GPGPU-Sim uArch: core: 11, cta: 4 initialized @(2211,0)
GPGPU-Sim uArch: Shader 12 finished CTA #0 (2211,0), 7 CTAs running
GPGPU-Sim uArch: core: 12, cta: 0 initialized @(2212,0)
GPGPU-Sim uArch: Shader 6 finished CTA #4 (2212,0), 7 CTAs running
GPGPU-Sim uArch: core:  6, cta: 4 initialized @(2213,0)
GPGPU-Sim uArch: Shader 8 finished CTA #4 (2214,0), 7 CTAs running
GPGPU-Sim uArch: Shader 11 finished CTA #0 (2214,0), 7 CTAs running
GPGPU-Sim uArch: core:  8, cta: 4 initialized @(2215,0)
GPGPU-Sim uArch: core: 11, cta: 0 initialized @(2215,0)
GPGPU-Sim uArch: Shader 1 finished CTA #1 (2324,0), 7 CTAs running
GPGPU-Sim uArch: core:  1, cta: 1 initialized @(2325,0)
GPGPU-Sim uArch: Shader 13 finished CTA #0 (2353,0), 7 CTAs running
GPGPU-Sim uArch: core: 13, cta: 0 initialized @(2354,0)
GPGPU-Sim uArch: Shader 2 finished CTA #1 (2364,0), 7 CTAs running
GPGPU-Sim uArch: core:  2, cta: 1 initialized @(2365,0)
GPGPU-Sim uArch: Shader 13 finished CTA #4 (2366,0), 7 CTAs running
GPGPU-Sim uArch: core: 13, cta: 4 initialized @(2367,0)
GPGPU-Sim uArch: Shader 1 finished CTA #5 (2372,0), 7 CTAs running
GPGPU-Sim uArch: core:  1, cta: 5 initialized @(2373,0)
GPGPU-Sim uArch: Shader 0 finished CTA #4 (2392,0), 7 CTAs running
GPGPU-Sim uArch: core:  0, cta: 4 initialized @(2393,0)
GPGPU-Sim uArch: Shader 0 finished CTA #0 (2404,0), 7 CTAs running
GPGPU-Sim uArch: core:  0, cta: 0 initialized @(2405,0)
GPGPU-Sim uArch: Shader 14 finished CTA #4 (2416,0), 7 CTAs running
GPGPU-Sim uArch: core: 14, cta: 4 initialized @(2417,0)
GPGPU-Sim uArch: Shader 14 finished CTA #0 (2426,0), 7 CTAs running
GPGPU-Sim uArch: core: 14, cta: 0 initialized @(2427,0)
GPGPU-Sim PTX: 400000 instructions simulated : ctaid=(36,1,0) tid=(3,2,0)
GPGPU-Sim uArch: cycles simulated: 2500  inst.: 379154 (ipc=151.7) sim_rate=189577 (inst/sec) elapsed = 0:0:00:02 / Fri Jan 16 05:37:10 2015
GPGPU-Sim uArch: Shader 6 finished CTA #5 (2515,0), 7 CTAs running
GPGPU-Sim uArch: core:  6, cta: 5 initialized @(2516,0)
GPGPU-Sim uArch: Shader 3 finished CTA #1 (2533,0), 7 CTAs running
GPGPU-Sim uArch: core:  3, cta: 1 initialized @(2534,0)
GPGPU-Sim uArch: Shader 5 finished CTA #5 (2556,0), 7 CTAs running
GPGPU-Sim uArch: core:  5, cta: 5 initialized @(2557,0)
GPGPU-Sim uArch: Shader 7 finished CTA #5 (2606,0), 7 CTAs running
GPGPU-Sim uArch: core:  7, cta: 5 initialized @(2607,0)
GPGPU-Sim uArch: Shader 8 finished CTA #5 (2787,0), 7 CTAs running
GPGPU-Sim uArch: core:  8, cta: 5 initialized @(2788,0)
GPGPU-Sim PTX: 500000 instructions simulated : ctaid=(51,0,0) tid=(2,1,0)
GPGPU-Sim uArch: Shader 3 finished CTA #4 (3119,0), 7 CTAs running
GPGPU-Sim uArch: core:  3, cta: 4 initialized @(3120,0)
GPGPU-Sim uArch: Shader 14 finished CTA #3 (3135,0), 7 CTAs running
GPGPU-Sim uArch: core: 14, cta: 3 initialized @(3136,0)
GPGPU-Sim uArch: Shader 4 finished CTA #4 (3137,0), 7 CTAs running
GPGPU-Sim uArch: core:  4, cta: 4 initialized @(3138,0)
GPGPU-Sim uArch: Shader 1 finished CTA #4 (3140,0), 7 CTAs running
GPGPU-Sim uArch: Shader 3 finished CTA #0 (3140,0), 7 CTAs running
GPGPU-Sim uArch: core:  1, cta: 4 initialized @(3141,0)
GPGPU-Sim uArch: core:  3, cta: 0 initialized @(3141,0)
GPGPU-Sim uArch: Shader 2 finished CTA #4 (3141,0), 7 CTAs running
GPGPU-Sim uArch: core:  2, cta: 4 initialized @(3142,0)
GPGPU-Sim uArch: Shader 0 finished CTA #3 (3143,0), 7 CTAs running
GPGPU-Sim uArch: core:  0, cta: 3 initialized @(3144,0)
GPGPU-Sim uArch: Shader 10 finished CTA #3 (3152,0), 7 CTAs running
GPGPU-Sim uArch: core: 10, cta: 3 initialized @(3153,0)
GPGPU-Sim uArch: Shader 12 finished CTA #3 (3155,0), 7 CTAs running
GPGPU-Sim uArch: core: 12, cta: 3 initialized @(3156,0)
GPGPU-Sim uArch: Shader 5 finished CTA #0 (3162,0), 7 CTAs running
GPGPU-Sim uArch: Shader 10 finished CTA #0 (3162,0), 7 CTAs running
GPGPU-Sim uArch: core:  5, cta: 0 initialized @(3163,0)
GPGPU-Sim uArch: core: 10, cta: 0 initialized @(3163,0)
GPGPU-Sim uArch: Shader 11 finished CTA #3 (3166,0), 7 CTAs running
GPGPU-Sim uArch: core: 11, cta: 3 initialized @(3167,0)
GPGPU-Sim uArch: Shader 7 finished CTA #4 (3170,0), 7 CTAs running
GPGPU-Sim uArch: core:  7, cta: 4 initialized @(3171,0)
GPGPU-Sim uArch: Shader 12 finished CTA #4 (3174,0), 7 CTAs running
GPGPU-Sim uArch: core: 12, cta: 4 initialized @(3175,0)
GPGPU-Sim PTX: 600000 instructions simulated : ctaid=(40,1,0) tid=(2,2,0)
GPGPU-Sim uArch: Shader 5 finished CTA #3 (3182,0), 7 CTAs running
GPGPU-Sim uArch: core:  5, cta: 3 initialized @(3183,0)
GPGPU-Sim uArch: Shader 13 finished CTA #3 (3200,0), 7 CTAs running
GPGPU-Sim uArch: core: 13, cta: 3 initialized @(3201,0)
GPGPU-Sim uArch: Shader 9 finished CTA #4 (3203,0), 7 CTAs running
GPGPU-Sim uArch: core:  9, cta: 4 initialized @(3204,0)
GPGPU-Sim uArch: Shader 7 finished CTA #3 (3214,0), 7 CTAs running
GPGPU-Sim uArch: core:  7, cta: 3 initialized @(3215,0)
GPGPU-Sim uArch: Shader 6 finished CTA #3 (3227,0), 7 CTAs running
GPGPU-Sim uArch: core:  6, cta: 3 initialized @(3228,0)
GPGPU-Sim uArch: Shader 9 finished CTA #3 (3230,0), 7 CTAs running
GPGPU-Sim uArch: core:  9, cta: 3 initialized @(3231,0)
GPGPU-Sim uArch: Shader 8 finished CTA #3 (3238,0), 7 CTAs running
GPGPU-Sim uArch: core:  8, cta: 3 initialized @(3239,0)
GPGPU-Sim uArch: Shader 10 finished CTA #4 (3242,0), 7 CTAs running
GPGPU-Sim uArch: core: 10, cta: 4 initialized @(3243,0)
GPGPU-Sim uArch: Shader 1 finished CTA #3 (3243,0), 7 CTAs running
GPGPU-Sim uArch: core:  1, cta: 3 initialized @(3244,0)
GPGPU-Sim uArch: Shader 11 finished CTA #4 (3245,0), 7 CTAs running
GPGPU-Sim uArch: core: 11, cta: 4 initialized @(3246,0)
GPGPU-Sim uArch: Shader 0 finished CTA #2 (3269,0), 7 CTAs running
GPGPU-Sim uArch: core:  0, cta: 2 initialized @(3270,0)
GPGPU-Sim uArch: Shader 3 finished CTA #3 (3274,0), 7 CTAs running
GPGPU-Sim uArch: core:  3, cta: 3 initialized @(3275,0)
GPGPU-Sim uArch: Shader 4 finished CTA #3 (3297,0), 7 CTAs running
GPGPU-Sim uArch: core:  4, cta: 3 initialized @(3298,0)
GPGPU-Sim uArch: Shader 2 finished CTA #3 (3318,0), 7 CTAs running
GPGPU-Sim uArch: core:  2, cta: 3 initialized @(3319,0)
GPGPU-Sim uArch: Shader 0 finished CTA #7 (3347,0), 7 CTAs running
GPGPU-Sim uArch: core:  0, cta: 7 initialized @(3348,0)
GPGPU-Sim uArch: Shader 5 finished CTA #7 (3363,0), 7 CTAs running
GPGPU-Sim uArch: core:  5, cta: 7 initialized @(3364,0)
GPGPU-Sim uArch: Shader 9 finished CTA #7 (3380,0), 7 CTAs running
GPGPU-Sim uArch: core:  9, cta: 7 initialized @(3381,0)
GPGPU-Sim uArch: Shader 12 finished CTA #7 (3383,0), 7 CTAs running
GPGPU-Sim uArch: core: 12, cta: 7 initialized @(3384,0)
GPGPU-Sim uArch: Shader 13 finished CTA #2 (3385,0), 7 CTAs running
GPGPU-Sim uArch: core: 13, cta: 2 initialized @(3386,0)
GPGPU-Sim uArch: Shader 14 finished CTA #7 (3387,0), 7 CTAs running
GPGPU-Sim uArch: core: 14, cta: 7 initialized @(3388,0)
GPGPU-Sim uArch: Shader 11 finished CTA #7 (3390,0), 7 CTAs running
GPGPU-Sim uArch: core: 11, cta: 7 initialized @(3391,0)
GPGPU-Sim uArch: Shader 7 finished CTA #7 (3395,0), 7 CTAs running
GPGPU-Sim uArch: core:  7, cta: 7 initialized @(3396,0)
GPGPU-Sim uArch: Shader 12 finished CTA #2 (3396,0), 7 CTAs running
GPGPU-Sim uArch: core: 12, cta: 2 initialized @(3397,0)
GPGPU-Sim uArch: Shader 1 finished CTA #7 (3407,0), 7 CTAs running
GPGPU-Sim uArch: core:  1, cta: 7 initialized @(3408,0)
GPGPU-Sim uArch: Shader 14 finished CTA #2 (3415,0), 7 CTAs running
GPGPU-Sim uArch: core: 14, cta: 2 initialized @(3416,0)
GPGPU-Sim uArch: Shader 10 finished CTA #7 (3420,0), 7 CTAs running
GPGPU-Sim uArch: core: 10, cta: 7 initialized @(3421,0)
GPGPU-Sim uArch: Shader 4 finished CTA #7 (3429,0), 7 CTAs running
GPGPU-Sim uArch: core:  4, cta: 7 initialized @(3430,0)
GPGPU-Sim uArch: Shader 8 finished CTA #7 (3433,0), 7 CTAs running
GPGPU-Sim uArch: core:  8, cta: 7 initialized @(3434,0)
GPGPU-Sim uArch: Shader 13 finished CTA #7 (3442,0), 7 CTAs running
GPGPU-Sim uArch: core: 13, cta: 7 initialized @(3443,0)
GPGPU-Sim uArch: Shader 12 finished CTA #0 (3456,0), 7 CTAs running
GPGPU-Sim uArch: core: 12, cta: 0 initialized @(3457,0)
GPGPU-Sim uArch: Shader 10 finished CTA #2 (3457,0), 7 CTAs running
GPGPU-Sim uArch: core: 10, cta: 2 initialized @(3458,0)
GPGPU-Sim uArch: Shader 6 finished CTA #7 (3463,0), 7 CTAs running
GPGPU-Sim uArch: core:  6, cta: 7 initialized @(3464,0)
GPGPU-Sim uArch: Shader 3 finished CTA #7 (3467,0), 7 CTAs running
GPGPU-Sim uArch: core:  3, cta: 7 initialized @(3468,0)
GPGPU-Sim uArch: Shader 11 finished CTA #2 (3468,0), 7 CTAs running
GPGPU-Sim uArch: core: 11, cta: 2 initialized @(3469,0)
GPGPU-Sim uArch: Shader 9 finished CTA #2 (3477,0), 7 CTAs running
GPGPU-Sim uArch: core:  9, cta: 2 initialized @(3478,0)
GPGPU-Sim uArch: Shader 2 finished CTA #7 (3506,0), 7 CTAs running
GPGPU-Sim uArch: core:  2, cta: 7 initialized @(3507,0)
GPGPU-Sim uArch: Shader 0 finished CTA #6 (3528,0), 7 CTAs running
GPGPU-Sim uArch: core:  0, cta: 6 initialized @(3529,0)
GPGPU-Sim uArch: Shader 13 finished CTA #6 (3532,0), 7 CTAs running
GPGPU-Sim uArch: core: 13, cta: 6 initialized @(3533,0)
GPGPU-Sim PTX: 700000 instructions simulated : ctaid=(28,2,0) tid=(0,1,0)
GPGPU-Sim uArch: Shader 8 finished CTA #2 (3562,0), 7 CTAs running
GPGPU-Sim uArch: core:  8, cta: 2 initialized @(3563,0)
GPGPU-Sim uArch: Shader 14 finished CTA #6 (3587,0), 7 CTAs running
GPGPU-Sim uArch: core: 14, cta: 6 initialized @(3588,0)
GPGPU-Sim uArch: Shader 7 finished CTA #2 (3624,0), 7 CTAs running
GPGPU-Sim uArch: core:  7, cta: 2 initialized @(3625,0)
GPGPU-Sim uArch: Shader 12 finished CTA #6 (3648,0), 7 CTAs running
GPGPU-Sim uArch: core: 12, cta: 6 initialized @(3649,0)
GPGPU-Sim uArch: Shader 6 finished CTA #4 (3655,0), 7 CTAs running
GPGPU-Sim uArch: core:  6, cta: 4 initialized @(3656,0)
GPGPU-Sim uArch: Shader 11 finished CTA #6 (3687,0), 7 CTAs running
GPGPU-Sim uArch: core: 11, cta: 6 initialized @(3688,0)
GPGPU-Sim uArch: Shader 6 finished CTA #2 (3820,0), 7 CTAs running
GPGPU-Sim uArch: core:  6, cta: 2 initialized @(3821,0)
GPGPU-Sim PTX: 800000 instructions simulated : ctaid=(15,2,0) tid=(0,0,0)
GPGPU-Sim uArch: cycles simulated: 4000  inst.: 781145 (ipc=195.3) sim_rate=260381 (inst/sec) elapsed = 0:0:00:03 / Fri Jan 16 05:37:11 2015
GPGPU-Sim uArch: Shader 0 finished CTA #4 (4028,0), 7 CTAs running
GPGPU-Sim uArch: core:  0, cta: 4 initialized @(4029,0)
GPGPU-Sim uArch: Shader 5 finished CTA #2 (4037,0), 7 CTAs running
GPGPU-Sim uArch: core:  5, cta: 2 initialized @(4038,0)
GPGPU-Sim uArch: Shader 0 finished CTA #0 (4057,0), 7 CTAs running
GPGPU-Sim uArch: core:  0, cta: 0 initialized @(4058,0)
GPGPU-Sim uArch: Shader 7 finished CTA #0 (4116,0), 7 CTAs running
GPGPU-Sim uArch: core:  7, cta: 0 initialized @(4117,0)
GPGPU-Sim uArch: Shader 8 finished CTA #0 (4118,0), 7 CTAs running
GPGPU-Sim uArch: core:  8, cta: 0 initialized @(4119,0)
GPGPU-Sim uArch: Shader 10 finished CTA #6 (4156,0), 7 CTAs running
GPGPU-Sim uArch: core: 10, cta: 6 initialized @(4157,0)
GPGPU-Sim uArch: Shader 6 finished CTA #0 (4200,0), 7 CTAs running
GPGPU-Sim uArch: core:  6, cta: 0 initialized @(4201,0)
GPGPU-Sim uArch: Shader 9 finished CTA #0 (4204,0), 7 CTAs running
GPGPU-Sim uArch: core:  9, cta: 0 initialized @(4205,0)
GPGPU-Sim PTX: 900000 instructions simulated : ctaid=(26,1,0) tid=(3,1,0)
GPGPU-Sim uArch: Shader 1 finished CTA #0 (4256,0), 7 CTAs running
GPGPU-Sim uArch: core:  1, cta: 0 initialized @(4257,0)
GPGPU-Sim uArch: Shader 2 finished CTA #0 (4261,0), 7 CTAs running
GPGPU-Sim uArch: core:  2, cta: 0 initialized @(4262,0)
GPGPU-Sim uArch: Shader 4 finished CTA #0 (4267,0), 7 CTAs running
GPGPU-Sim uArch: core:  4, cta: 0 initialized @(4268,0)
GPGPU-Sim uArch: Shader 14 finished CTA #4 (4327,0), 7 CTAs running
GPGPU-Sim uArch: core: 14, cta: 4 initialized @(4328,0)
GPGPU-Sim uArch: Shader 5 finished CTA #4 (4341,0), 7 CTAs running
GPGPU-Sim uArch: core:  5, cta: 4 initialized @(4342,0)
GPGPU-Sim uArch: Shader 14 finished CTA #2 (4384,0), 7 CTAs running
GPGPU-Sim uArch: core: 14, cta: 2 initialized @(4385,0)
GPGPU-Sim uArch: Shader 13 finished CTA #7 (4402,0), 7 CTAs running
GPGPU-Sim uArch: core: 13, cta: 7 initialized @(4403,0)
GPGPU-Sim uArch: Shader 4 finished CTA #7 (4417,0), 7 CTAs running
GPGPU-Sim uArch: core:  4, cta: 7 initialized @(4418,0)
GPGPU-Sim uArch: Shader 10 finished CTA #7 (4431,0), 7 CTAs running
GPGPU-Sim uArch: core: 10, cta: 7 initialized @(4432,0)
GPGPU-Sim uArch: Shader 12 finished CTA #0 (4469,0), 7 CTAs running
GPGPU-Sim uArch: core: 12, cta: 0 initialized @(4470,0)
GPGPU-Sim uArch: Shader 8 finished CTA #7 (4492,0), 7 CTAs running
GPGPU-Sim uArch: core:  8, cta: 7 initialized @(4493,0)
GPGPU-Sim uArch: Shader 4 finished CTA #2 (4506,0), 7 CTAs running
GPGPU-Sim uArch: core:  4, cta: 2 initialized @(4507,0)
GPGPU-Sim uArch: Shader 4 finished CTA #5 (4572,0), 7 CTAs running
GPGPU-Sim uArch: core:  4, cta: 5 initialized @(4573,0)
GPGPU-Sim PTX: 1000000 instructions simulated : ctaid=(31,0,0) tid=(0,2,0)
GPGPU-Sim uArch: Shader 10 finished CTA #2 (4628,0), 7 CTAs running
GPGPU-Sim uArch: core: 10, cta: 2 initialized @(4629,0)
GPGPU-Sim uArch: Shader 3 finished CTA #2 (4858,0), 7 CTAs running
GPGPU-Sim uArch: core:  3, cta: 2 initialized @(4859,0)
GPGPU-Sim PTX: 1100000 instructions simulated : ctaid=(34,3,0) tid=(2,3,0)
GPGPU-Sim uArch: Shader 2 finished CTA #2 (5062,0), 7 CTAs running
GPGPU-Sim uArch: core:  2, cta: 2 initialized @(5063,0)
GPGPU-Sim uArch: Shader 1 finished CTA #2 (5165,0), 7 CTAs running
GPGPU-Sim uArch: core:  1, cta: 2 initialized @(5166,0)
GPGPU-Sim PTX: 1200000 instructions simulated : ctaid=(30,2,0) tid=(3,1,0)
GPGPU-Sim uArch: Shader 6 finished CTA #4 (5429,0), 7 CTAs running
GPGPU-Sim uArch: core:  6, cta: 4 initialized @(5430,0)
GPGPU-Sim uArch: Shader 11 finished CTA #4 (5482,0), 7 CTAs running
GPGPU-Sim uArch: core: 11, cta: 4 initialized @(5483,0)
GPGPU-Sim uArch: Shader 10 finished CTA #4 (5499,0), 7 CTAs running
GPGPU-Sim uArch: core: 10, cta: 4 initialized @(5500,0)
GPGPU-Sim uArch: cycles simulated: 5500  inst.: 1179351 (ipc=214.4) sim_rate=294837 (inst/sec) elapsed = 0:0:00:04 / Fri Jan 16 05:37:12 2015
GPGPU-Sim uArch: Shader 3 finished CTA #3 (5501,0), 7 CTAs running
GPGPU-Sim uArch: core:  3, cta: 3 initialized @(5502,0)
GPGPU-Sim uArch: Shader 13 finished CTA #2 (5503,0), 7 CTAs running
GPGPU-Sim uArch: core: 13, cta: 2 initialized @(5504,0)
GPGPU-Sim uArch: Shader 0 finished CTA #2 (5505,0), 7 CTAs running
GPGPU-Sim uArch: core:  0, cta: 2 initialized @(5506,0)
GPGPU-Sim uArch: Shader 1 finished CTA #3 (5507,0), 7 CTAs running
GPGPU-Sim uArch: core:  1, cta: 3 initialized @(5508,0)
GPGPU-Sim uArch: Shader 6 finished CTA #3 (5510,0), 7 CTAs running
GPGPU-Sim uArch: core:  6, cta: 3 initialized @(5511,0)
GPGPU-Sim uArch: Shader 8 finished CTA #3 (5512,0), 7 CTAs running
GPGPU-Sim uArch: core:  8, cta: 3 initialized @(5513,0)
GPGPU-Sim uArch: Shader 2 finished CTA #3 (5513,0), 7 CTAs running
GPGPU-Sim uArch: core:  2, cta: 3 initialized @(5514,0)
GPGPU-Sim uArch: Shader 9 finished CTA #3 (5518,0), 7 CTAs running
GPGPU-Sim uArch: core:  9, cta: 3 initialized @(5519,0)
GPGPU-Sim uArch: Shader 14 finished CTA #7 (5521,0), 7 CTAs running
GPGPU-Sim uArch: core: 14, cta: 7 initialized @(5522,0)
GPGPU-Sim uArch: Shader 12 finished CTA #2 (5526,0), 7 CTAs running
GPGPU-Sim uArch: core: 12, cta: 2 initialized @(5527,0)
GPGPU-Sim uArch: Shader 12 finished CTA #4 (5530,0), 7 CTAs running
GPGPU-Sim uArch: core: 12, cta: 4 initialized @(5531,0)
GPGPU-Sim uArch: Shader 9 finished CTA #4 (5534,0), 7 CTAs running
GPGPU-Sim uArch: core:  9, cta: 4 initialized @(5535,0)
GPGPU-Sim uArch: Shader 4 finished CTA #3 (5536,0), 7 CTAs running
GPGPU-Sim uArch: core:  4, cta: 3 initialized @(5537,0)
GPGPU-Sim uArch: Shader 5 finished CTA #7 (5539,0), 7 CTAs running
GPGPU-Sim uArch: core:  5, cta: 7 initialized @(5540,0)
GPGPU-Sim uArch: Shader 9 finished CTA #7 (5542,0), 7 CTAs running
GPGPU-Sim uArch: core:  9, cta: 7 initialized @(5543,0)
GPGPU-Sim uArch: Shader 0 finished CTA #7 (5550,0), 7 CTAs running
GPGPU-Sim uArch: core:  0, cta: 7 initialized @(5551,0)
GPGPU-Sim uArch: Shader 7 finished CTA #7 (5554,0), 7 CTAs running
GPGPU-Sim uArch: core:  7, cta: 7 initialized @(5555,0)
GPGPU-Sim uArch: Shader 12 finished CTA #7 (5558,0), 7 CTAs running
GPGPU-Sim uArch: core: 12, cta: 7 initialized @(5559,0)
GPGPU-Sim uArch: Shader 13 finished CTA #3 (5581,0), 7 CTAs running
GPGPU-Sim uArch: core: 13, cta: 3 initialized @(5582,0)
GPGPU-Sim uArch: Shader 11 finished CTA #7 (5593,0), 7 CTAs running
GPGPU-Sim uArch: core: 11, cta: 7 initialized @(5594,0)
GPGPU-Sim uArch: Shader 7 finished CTA #3 (5600,0), 7 CTAs running
GPGPU-Sim uArch: core:  7, cta: 3 initialized @(5601,0)
GPGPU-Sim uArch: Shader 7 finished CTA #4 (5612,0), 7 CTAs running
GPGPU-Sim uArch: core:  7, cta: 4 initialized @(5613,0)
GPGPU-Sim uArch: Shader 11 finished CTA #6 (5624,0), 7 CTAs running
GPGPU-Sim uArch: core: 11, cta: 6 initialized @(5625,0)
GPGPU-Sim uArch: Shader 5 finished CTA #3 (5667,0), 7 CTAs running
GPGPU-Sim uArch: core:  5, cta: 3 initialized @(5668,0)
GPGPU-Sim uArch: Shader 1 finished CTA #7 (5674,0), 7 CTAs running
GPGPU-Sim uArch: core:  1, cta: 7 initialized @(5675,0)
GPGPU-Sim PTX: 1300000 instructions simulated : ctaid=(58,3,0) tid=(2,2,0)
GPGPU-Sim uArch: Shader 11 finished CTA #3 (5744,0), 7 CTAs running
GPGPU-Sim uArch: core: 11, cta: 3 initialized @(5745,0)
GPGPU-Sim uArch: Shader 10 finished CTA #0 (5800,0), 7 CTAs running
GPGPU-Sim uArch: core: 10, cta: 0 initialized @(5801,0)
GPGPU-Sim uArch: Shader 6 finished CTA #2 (5888,0), 7 CTAs running
GPGPU-Sim uArch: core:  6, cta: 2 initialized @(5889,0)
GPGPU-Sim PTX: 1400000 instructions simulated : ctaid=(25,0,0) tid=(3,0,0)
GPGPU-Sim uArch: Shader 3 finished CTA #5 (6195,0), 7 CTAs running
GPGPU-Sim uArch: core:  3, cta: 5 initialized @(6196,0)
GPGPU-Sim PTX: 1500000 instructions simulated : ctaid=(21,1,0) tid=(0,2,0)
GPGPU-Sim uArch: Shader 7 finished CTA #7 (6526,0), 7 CTAs running
GPGPU-Sim uArch: core:  7, cta: 7 initialized @(6527,0)
GPGPU-Sim uArch: Shader 0 finished CTA #7 (6546,0), 7 CTAs running
GPGPU-Sim uArch: core:  0, cta: 7 initialized @(6547,0)
GPGPU-Sim uArch: Shader 13 finished CTA #3 (6584,0), 7 CTAs running
GPGPU-Sim uArch: core: 13, cta: 3 initialized @(6585,0)
GPGPU-Sim uArch: Shader 8 finished CTA #2 (6634,0), 7 CTAs running
GPGPU-Sim uArch: core:  8, cta: 2 initialized @(6635,0)
GPGPU-Sim uArch: Shader 12 finished CTA #7 (6638,0), 7 CTAs running
GPGPU-Sim uArch: core: 12, cta: 7 initialized @(6639,0)
GPGPU-Sim uArch: Shader 11 finished CTA #7 (6641,0), 7 CTAs running
GPGPU-Sim uArch: core: 11, cta: 7 initialized @(6642,0)
GPGPU-Sim uArch: Shader 13 finished CTA #6 (6698,0), 7 CTAs running
GPGPU-Sim uArch: core: 13, cta: 6 initialized @(6699,0)
GPGPU-Sim uArch: Shader 7 finished CTA #3 (6755,0), 7 CTAs running
GPGPU-Sim uArch: core:  7, cta: 3 initialized @(6756,0)
GPGPU-Sim PTX: 1600000 instructions simulated : ctaid=(21,1,0) tid=(2,1,0)
GPGPU-Sim uArch: Shader 14 finished CTA #6 (6833,0), 7 CTAs running
GPGPU-Sim uArch: core: 14, cta: 6 initialized @(6834,0)
GPGPU-Sim uArch: Shader 7 finished CTA #4 (6874,0), 7 CTAs running
GPGPU-Sim uArch: core:  7, cta: 4 initialized @(6875,0)
GPGPU-Sim uArch: Shader 11 finished CTA #0 (6904,0), 7 CTAs running
GPGPU-Sim uArch: core: 11, cta: 0 initialized @(6905,0)
GPGPU-Sim uArch: cycles simulated: 7000  inst.: 1544780 (ipc=220.7) sim_rate=308956 (inst/sec) elapsed = 0:0:00:05 / Fri Jan 16 05:37:13 2015
GPGPU-Sim uArch: Shader 12 finished CTA #0 (7066,0), 7 CTAs running
GPGPU-Sim uArch: core: 12, cta: 0 initialized @(7067,0)
GPGPU-Sim uArch: Shader 4 finished CTA #2 (7083,0), 7 CTAs running
GPGPU-Sim uArch: core:  4, cta: 2 initialized @(7084,0)
GPGPU-Sim uArch: Shader 10 finished CTA #2 (7087,0), 7 CTAs running
GPGPU-Sim uArch: core: 10, cta: 2 initialized @(7088,0)
GPGPU-Sim uArch: Shader 4 finished CTA #5 (7109,0), 7 CTAs running
GPGPU-Sim uArch: core:  4, cta: 5 initialized @(7110,0)
GPGPU-Sim uArch: Shader 8 finished CTA #7 (7123,0), 7 CTAs running
GPGPU-Sim uArch: core:  8, cta: 7 initialized @(7124,0)
GPGPU-Sim uArch: Shader 10 finished CTA #7 (7175,0), 7 CTAs running
GPGPU-Sim uArch: core: 10, cta: 7 initialized @(7176,0)
GPGPU-Sim PTX: 1700000 instructions simulated : ctaid=(22,0,0) tid=(3,1,0)
GPGPU-Sim uArch: Shader 3 finished CTA #2 (7337,0), 7 CTAs running
GPGPU-Sim uArch: core:  3, cta: 2 initialized @(7338,0)
GPGPU-Sim uArch: Shader 4 finished CTA #7 (7387,0), 7 CTAs running
GPGPU-Sim uArch: core:  4, cta: 7 initialized @(7388,0)
GPGPU-Sim uArch: Shader 2 finished CTA #2 (7467,0), 7 CTAs running
GPGPU-Sim uArch: core:  2, cta: 2 initialized @(7468,0)
GPGPU-Sim uArch: Shader 1 finished CTA #2 (7542,0), 7 CTAs running
GPGPU-Sim uArch: core:  1, cta: 2 initialized @(7543,0)
GPGPU-Sim uArch: Shader 12 finished CTA #2 (7571,0), 7 CTAs running
GPGPU-Sim uArch: core: 12, cta: 2 initialized @(7572,0)
GPGPU-Sim uArch: Shader 14 finished CTA #3 (7612,0), 7 CTAs running
GPGPU-Sim uArch: core: 14, cta: 3 initialized @(7613,0)
GPGPU-Sim uArch: Shader 3 finished CTA #4 (7616,0), 7 CTAs running
GPGPU-Sim uArch: core:  3, cta: 4 initialized @(7617,0)
GPGPU-Sim uArch: Shader 12 finished CTA #4 (7625,0), 7 CTAs running
GPGPU-Sim uArch: core: 12, cta: 4 initialized @(7626,0)
GPGPU-Sim uArch: Shader 4 finished CTA #3 (7629,0), 7 CTAs running
GPGPU-Sim uArch: core:  4, cta: 3 initialized @(7630,0)
GPGPU-Sim uArch: Shader 9 finished CTA #3 (7648,0), 7 CTAs running
GPGPU-Sim uArch: core:  9, cta: 3 initialized @(7649,0)
GPGPU-Sim uArch: Shader 9 finished CTA #4 (7679,0), 7 CTAs running
GPGPU-Sim uArch: core:  9, cta: 4 initialized @(7680,0)
GPGPU-Sim uArch: Shader 2 finished CTA #3 (7681,0), 7 CTAs running
GPGPU-Sim uArch: core:  2, cta: 3 initialized @(7682,0)
GPGPU-Sim uArch: Shader 14 finished CTA #7 (7692,0), 7 CTAs running
GPGPU-Sim uArch: core: 14, cta: 7 initialized @(7693,0)
GPGPU-Sim uArch: Shader 6 finished CTA #4 (7698,0), 7 CTAs running
GPGPU-Sim uArch: core:  6, cta: 4 initialized @(7699,0)
GPGPU-Sim uArch: Shader 13 finished CTA #2 (7709,0), 7 CTAs running
GPGPU-Sim uArch: core: 13, cta: 2 initialized @(7710,0)
GPGPU-Sim uArch: Shader 1 finished CTA #3 (7715,0), 7 CTAs running
GPGPU-Sim uArch: core:  1, cta: 3 initialized @(7716,0)
GPGPU-Sim PTX: 1800000 instructions simulated : ctaid=(35,4,0) tid=(0,2,0)
GPGPU-Sim uArch: Shader 10 finished CTA #4 (7723,0), 7 CTAs running
GPGPU-Sim uArch: core: 10, cta: 4 initialized @(7724,0)
GPGPU-Sim uArch: Shader 5 finished CTA #7 (7733,0), 7 CTAs running
GPGPU-Sim uArch: core:  5, cta: 7 initialized @(7734,0)
GPGPU-Sim uArch: Shader 3 finished CTA #3 (7735,0), 7 CTAs running
GPGPU-Sim uArch: core:  3, cta: 3 initialized @(7736,0)
GPGPU-Sim uArch: Shader 0 finished CTA #2 (7739,0), 7 CTAs running
GPGPU-Sim uArch: core:  0, cta: 2 initialized @(7740,0)
GPGPU-Sim uArch: Shader 11 finished CTA #4 (7748,0), 7 CTAs running
GPGPU-Sim uArch: core: 11, cta: 4 initialized @(7749,0)
GPGPU-Sim uArch: Shader 8 finished CTA #3 (7754,0), 7 CTAs running
GPGPU-Sim uArch: core:  8, cta: 3 initialized @(7755,0)
GPGPU-Sim uArch: Shader 6 finished CTA #3 (7798,0), 7 CTAs running
GPGPU-Sim uArch: core:  6, cta: 3 initialized @(7799,0)
GPGPU-Sim uArch: Shader 9 finished CTA #7 (7923,0), 7 CTAs running
GPGPU-Sim uArch: core:  9, cta: 7 initialized @(7924,0)
GPGPU-Sim uArch: Shader 10 finished CTA #6 (8147,0), 7 CTAs running
GPGPU-Sim uArch: core: 10, cta: 6 initialized @(8148,0)
GPGPU-Sim PTX: 1900000 instructions simulated : ctaid=(7,4,0) tid=(3,3,0)
GPGPU-Sim uArch: Shader 6 finished CTA #0 (8221,0), 7 CTAs running
GPGPU-Sim uArch: core:  6, cta: 0 initialized @(8222,0)
GPGPU-Sim uArch: Shader 3 finished CTA #6 (8225,0), 7 CTAs running
GPGPU-Sim uArch: core:  3, cta: 6 initialized @(8226,0)
GPGPU-Sim uArch: Shader 0 finished CTA #0 (8260,0), 7 CTAs running
GPGPU-Sim uArch: core:  0, cta: 0 initialized @(8261,0)
GPGPU-Sim uArch: Shader 6 finished CTA #7 (8377,0), 7 CTAs running
GPGPU-Sim uArch: core:  6, cta: 7 initialized @(8378,0)
GPGPU-Sim uArch: cycles simulated: 8500  inst.: 1857154 (ipc=218.5) sim_rate=309525 (inst/sec) elapsed = 0:0:00:06 / Fri Jan 16 05:37:14 2015
GPGPU-Sim uArch: Shader 9 finished CTA #0 (8539,0), 7 CTAs running
GPGPU-Sim uArch: core:  9, cta: 0 initialized @(8540,0)
GPGPU-Sim uArch: Shader 11 finished CTA #2 (8611,0), 7 CTAs running
GPGPU-Sim uArch: core: 11, cta: 2 initialized @(8612,0)
GPGPU-Sim PTX: 2000000 instructions simulated : ctaid=(32,1,0) tid=(3,2,0)
GPGPU-Sim uArch: Shader 11 finished CTA #7 (8715,0), 7 CTAs running
GPGPU-Sim uArch: Shader 12 finished CTA #7 (8715,0), 7 CTAs running
GPGPU-Sim uArch: core: 12, cta: 7 initialized @(8716,0)
GPGPU-Sim uArch: core: 11, cta: 7 initialized @(8716,0)
GPGPU-Sim uArch: Shader 13 finished CTA #6 (8718,0), 7 CTAs running
GPGPU-Sim uArch: core: 13, cta: 6 initialized @(8719,0)
GPGPU-Sim uArch: Shader 11 finished CTA #1 (8739,0), 7 CTAs running
GPGPU-Sim uArch: core: 11, cta: 1 initialized @(8740,0)
GPGPU-Sim uArch: Shader 6 finished CTA #2 (8764,0), 7 CTAs running
GPGPU-Sim uArch: core:  6, cta: 2 initialized @(8765,0)
GPGPU-Sim uArch: Shader 3 finished CTA #5 (9017,0), 7 CTAs running
GPGPU-Sim uArch: core:  3, cta: 5 initialized @(9018,0)
GPGPU-Sim uArch: Shader 7 finished CTA #3 (9108,0), 7 CTAs running
GPGPU-Sim uArch: core:  7, cta: 3 initialized @(9109,0)
GPGPU-Sim PTX: 2100000 instructions simulated : ctaid=(29,4,0) tid=(0,0,0)
GPGPU-Sim uArch: Shader 10 finished CTA #0 (9175,0), 7 CTAs running
GPGPU-Sim uArch: core: 10, cta: 0 initialized @(9176,0)
GPGPU-Sim uArch: Shader 7 finished CTA #7 (9370,0), 7 CTAs running
GPGPU-Sim uArch: core:  7, cta: 7 initialized @(9371,0)
GPGPU-Sim uArch: Shader 12 finished CTA #1 (9446,0), 7 CTAs running
GPGPU-Sim uArch: core: 12, cta: 1 initialized @(9447,0)
GPGPU-Sim uArch: Shader 0 finished CTA #4 (9559,0), 7 CTAs running
GPGPU-Sim uArch: core:  0, cta: 4 initialized @(9560,0)
GPGPU-Sim PTX: 2200000 instructions simulated : ctaid=(3,5,0) tid=(1,0,0)
GPGPU-Sim uArch: Shader 13 finished CTA #6 (9703,0), 7 CTAs running
GPGPU-Sim uArch: core: 13, cta: 6 initialized @(9704,0)
GPGPU-Sim uArch: Shader 11 finished CTA #1 (9736,0), 7 CTAs running
GPGPU-Sim uArch: core: 11, cta: 1 initialized @(9737,0)
GPGPU-Sim uArch: Shader 6 finished CTA #2 (9819,0), 7 CTAs running
GPGPU-Sim uArch: core:  6, cta: 2 initialized @(9820,0)
GPGPU-Sim uArch: Shader 0 finished CTA #1 (9982,0), 7 CTAs running
GPGPU-Sim uArch: core:  0, cta: 1 initialized @(9983,0)
GPGPU-Sim uArch: cycles simulated: 10000  inst.: 2139054 (ipc=213.9) sim_rate=305579 (inst/sec) elapsed = 0:0:00:07 / Fri Jan 16 05:37:15 2015
GPGPU-Sim uArch: Shader 3 finished CTA #5 (10016,0), 7 CTAs running
GPGPU-Sim uArch: core:  3, cta: 5 initialized @(10017,0)
GPGPU-Sim uArch: Shader 0 finished CTA #2 (10026,0), 7 CTAs running
GPGPU-Sim uArch: core:  0, cta: 2 initialized @(10027,0)
GPGPU-Sim uArch: Shader 6 finished CTA #3 (10044,0), 7 CTAs running
GPGPU-Sim uArch: core:  6, cta: 3 initialized @(10045,0)
GPGPU-Sim uArch: Shader 13 finished CTA #2 (10046,0), 7 CTAs running
GPGPU-Sim uArch: core: 13, cta: 2 initialized @(10047,0)
GPGPU-Sim uArch: Shader 3 finished CTA #3 (10047,0), 7 CTAs running
GPGPU-Sim uArch: core:  3, cta: 3 initialized @(10048,0)
GPGPU-Sim uArch: Shader 8 finished CTA #3 (10049,0), 7 CTAs running
GPGPU-Sim uArch: core:  8, cta: 3 initialized @(10050,0)
GPGPU-Sim uArch: Shader 11 finished CTA #4 (10051,0), 7 CTAs running
GPGPU-Sim uArch: core: 11, cta: 4 initialized @(10052,0)
GPGPU-Sim uArch: Shader 6 finished CTA #4 (10067,0), 7 CTAs running
GPGPU-Sim uArch: core:  6, cta: 4 initialized @(10068,0)
GPGPU-Sim uArch: Shader 9 finished CTA #4 (10072,0), 7 CTAs running
GPGPU-Sim uArch: core:  9, cta: 4 initialized @(10073,0)
GPGPU-Sim uArch: Shader 10 finished CTA #4 (10076,0), 7 CTAs running
GPGPU-Sim uArch: core: 10, cta: 4 initialized @(10077,0)
GPGPU-Sim uArch: Shader 1 finished CTA #3 (10093,0), 7 CTAs running
GPGPU-Sim uArch: core:  1, cta: 3 initialized @(10094,0)
GPGPU-Sim uArch: Shader 9 finished CTA #3 (10102,0), 7 CTAs running
GPGPU-Sim uArch: core:  9, cta: 3 initialized @(10103,0)
GPGPU-Sim uArch: Shader 5 finished CTA #7 (10111,0), 7 CTAs running
GPGPU-Sim uArch: core:  5, cta: 7 initialized @(10112,0)
GPGPU-Sim uArch: Shader 2 finished CTA #3 (10165,0), 7 CTAs running
GPGPU-Sim uArch: core:  2, cta: 3 initialized @(10166,0)
GPGPU-Sim uArch: Shader 9 finished CTA #7 (10174,0), 7 CTAs running
GPGPU-Sim uArch: core:  9, cta: 7 initialized @(10175,0)
GPGPU-Sim PTX: 2300000 instructions simulated : ctaid=(27,5,0) tid=(0,0,0)
GPGPU-Sim uArch: Shader 14 finished CTA #7 (10189,0), 7 CTAs running
GPGPU-Sim uArch: core: 14, cta: 7 initialized @(10190,0)
GPGPU-Sim uArch: Shader 7 finished CTA #3 (10231,0), 7 CTAs running
GPGPU-Sim uArch: core:  7, cta: 3 initialized @(10232,0)
GPGPU-Sim uArch: Shader 1 finished CTA #6 (10254,0), 7 CTAs running
GPGPU-Sim uArch: core:  1, cta: 6 initialized @(10255,0)
GPGPU-Sim uArch: Shader 4 finished CTA #3 (10270,0), 7 CTAs running
GPGPU-Sim uArch: core:  4, cta: 3 initialized @(10271,0)
GPGPU-Sim uArch: Shader 3 finished CTA #4 (10274,0), 7 CTAs running
GPGPU-Sim uArch: core:  3, cta: 4 initialized @(10275,0)
GPGPU-Sim uArch: Shader 6 finished CTA #0 (10283,0), 7 CTAs running
GPGPU-Sim uArch: core:  6, cta: 0 initialized @(10284,0)
GPGPU-Sim uArch: Shader 12 finished CTA #4 (10310,0), 7 CTAs running
GPGPU-Sim uArch: core: 12, cta: 4 initialized @(10311,0)
GPGPU-Sim uArch: Shader 10 finished CTA #6 (10341,0), 7 CTAs running
GPGPU-Sim uArch: core: 10, cta: 6 initialized @(10342,0)
GPGPU-Sim uArch: Shader 3 finished CTA #6 (10379,0), 7 CTAs running
GPGPU-Sim uArch: core:  3, cta: 6 initialized @(10380,0)
GPGPU-Sim uArch: Shader 0 finished CTA #0 (10382,0), 7 CTAs running
GPGPU-Sim uArch: core:  0, cta: 0 initialized @(10383,0)
GPGPU-Sim uArch: Shader 13 finished CTA #1 (10488,0), 7 CTAs running
GPGPU-Sim uArch: core: 13, cta: 1 initialized @(10489,0)
GPGPU-Sim uArch: Shader 6 finished CTA #7 (10521,0), 7 CTAs running
GPGPU-Sim uArch: core:  6, cta: 7 initialized @(10522,0)
GPGPU-Sim uArch: Shader 9 finished CTA #0 (10671,0), 7 CTAs running
GPGPU-Sim uArch: core:  9, cta: 0 initialized @(10672,0)
GPGPU-Sim uArch: Shader 6 finished CTA #5 (10681,0), 7 CTAs running
GPGPU-Sim uArch: core:  6, cta: 5 initialized @(10682,0)
GPGPU-Sim PTX: 2400000 instructions simulated : ctaid=(9,4,0) tid=(1,2,0)
GPGPU-Sim uArch: Shader 11 finished CTA #2 (10828,0), 7 CTAs running
GPGPU-Sim uArch: core: 11, cta: 2 initialized @(10829,0)
GPGPU-Sim uArch: Shader 1 finished CTA #5 (10854,0), 7 CTAs running
GPGPU-Sim uArch: core:  1, cta: 5 initialized @(10855,0)
GPGPU-Sim uArch: Shader 12 finished CTA #7 (10888,0), 7 CTAs running
GPGPU-Sim uArch: core: 12, cta: 7 initialized @(10889,0)
GPGPU-Sim uArch: Shader 10 finished CTA #2 (10954,0), 7 CTAs running
GPGPU-Sim uArch: core: 10, cta: 2 initialized @(10955,0)
GPGPU-Sim uArch: Shader 11 finished CTA #7 (11008,0), 7 CTAs running
GPGPU-Sim uArch: core: 11, cta: 7 initialized @(11009,0)
GPGPU-Sim uArch: Shader 4 finished CTA #2 (11144,0), 7 CTAs running
GPGPU-Sim uArch: core:  4, cta: 2 initialized @(11145,0)
GPGPU-Sim uArch: Shader 14 finished CTA #0 (11208,0), 7 CTAs running
GPGPU-Sim uArch: core: 14, cta: 0 initialized @(11209,0)
GPGPU-Sim uArch: Shader 4 finished CTA #5 (11240,0), 7 CTAs running
GPGPU-Sim uArch: core:  4, cta: 5 initialized @(11241,0)
GPGPU-Sim PTX: 2500000 instructions simulated : ctaid=(23,5,0) tid=(0,3,0)
GPGPU-Sim uArch: cycles simulated: 11500  inst.: 2388202 (ipc=207.7) sim_rate=298525 (inst/sec) elapsed = 0:0:00:08 / Fri Jan 16 05:37:16 2015
GPGPU-Sim uArch: Shader 9 finished CTA #5 (11700,0), 7 CTAs running
GPGPU-Sim uArch: core:  9, cta: 5 initialized @(11701,0)
GPGPU-Sim uArch: Shader 2 finished CTA #7 (11736,0), 7 CTAs running
GPGPU-Sim uArch: core:  2, cta: 7 initialized @(11737,0)
GPGPU-Sim uArch: Shader 0 finished CTA #6 (11841,0), 7 CTAs running
GPGPU-Sim uArch: core:  0, cta: 6 initialized @(11842,0)
GPGPU-Sim PTX: 2600000 instructions simulated : ctaid=(21,1,0) tid=(0,3,0)
GPGPU-Sim uArch: Shader 7 finished CTA #0 (11989,0), 7 CTAs running
GPGPU-Sim uArch: core:  7, cta: 0 initialized @(11990,0)
GPGPU-Sim uArch: Shader 6 finished CTA #4 (12118,0), 7 CTAs running
GPGPU-Sim uArch: core:  6, cta: 4 initialized @(12119,0)
GPGPU-Sim uArch: Shader 11 finished CTA #4 (12157,0), 7 CTAs running
GPGPU-Sim uArch: core: 11, cta: 4 initialized @(12158,0)
GPGPU-Sim uArch: Shader 9 finished CTA #4 (12265,0), 7 CTAs running
GPGPU-Sim uArch: core:  9, cta: 4 initialized @(12266,0)
GPGPU-Sim uArch: Shader 8 finished CTA #3 (12284,0), 7 CTAs running
GPGPU-Sim uArch: core:  8, cta: 3 initialized @(12285,0)
GPGPU-Sim uArch: Shader 10 finished CTA #4 (12288,0), 7 CTAs running
GPGPU-Sim uArch: core: 10, cta: 4 initialized @(12289,0)
GPGPU-Sim uArch: Shader 9 finished CTA #6 (12403,0), 7 CTAs running
GPGPU-Sim uArch: core:  9, cta: 6 initialized @(12404,0)
GPGPU-Sim PTX: 2700000 instructions simulated : ctaid=(30,5,0) tid=(3,2,0)
GPGPU-Sim uArch: Shader 6 finished CTA #2 (12488,0), 7 CTAs running
GPGPU-Sim uArch: core:  6, cta: 2 initialized @(12489,0)
GPGPU-Sim uArch: Shader 0 finished CTA #5 (12572,0), 7 CTAs running
GPGPU-Sim uArch: core:  0, cta: 5 initialized @(12573,0)
GPGPU-Sim uArch: Shader 2 finished CTA #1 (12719,0), 7 CTAs running
GPGPU-Sim uArch: core:  2, cta: 1 initialized @(12720,0)
GPGPU-Sim uArch: Shader 0 finished CTA #2 (12741,0), 7 CTAs running
GPGPU-Sim uArch: core:  0, cta: 2 initialized @(12742,0)
GPGPU-Sim uArch: Shader 3 finished CTA #5 (12750,0), 7 CTAs running
GPGPU-Sim uArch: core:  3, cta: 5 initialized @(12751,0)
GPGPU-Sim uArch: Shader 0 finished CTA #1 (12753,0), 7 CTAs running
GPGPU-Sim uArch: core:  0, cta: 1 initialized @(12754,0)
GPGPU-Sim uArch: Shader 13 finished CTA #3 (12840,0), 7 CTAs running
GPGPU-Sim uArch: core: 13, cta: 3 initialized @(12841,0)
GPGPU-Sim PTX: 2800000 instructions simulated : ctaid=(35,5,0) tid=(0,1,0)
GPGPU-Sim uArch: Shader 6 finished CTA #7 (13126,0), 7 CTAs running
GPGPU-Sim uArch: core:  6, cta: 7 initialized @(13127,0)
GPGPU-Sim uArch: Shader 6 finished CTA #5 (13143,0), 7 CTAs running
GPGPU-Sim uArch: core:  6, cta: 5 initialized @(13144,0)
GPGPU-Sim uArch: Shader 13 finished CTA #1 (13162,0), 7 CTAs running
GPGPU-Sim uArch: core: 13, cta: 1 initialized @(13163,0)
GPGPU-Sim uArch: Shader 0 finished CTA #0 (13165,0), 7 CTAs running
GPGPU-Sim uArch: Shader 9 finished CTA #1 (13165,0), 7 CTAs running
GPGPU-Sim uArch: core:  0, cta: 0 initialized @(13166,0)
GPGPU-Sim uArch: core:  9, cta: 1 initialized @(13166,0)
GPGPU-Sim uArch: Shader 9 finished CTA #0 (13225,0), 7 CTAs running
GPGPU-Sim uArch: core:  9, cta: 0 initialized @(13226,0)
GPGPU-Sim uArch: Shader 12 finished CTA #7 (13238,0), 7 CTAs running
GPGPU-Sim uArch: core: 12, cta: 7 initialized @(13239,0)
GPGPU-Sim uArch: Shader 11 finished CTA #2 (13245,0), 7 CTAs running
GPGPU-Sim uArch: core: 11, cta: 2 initialized @(13246,0)
GPGPU-Sim uArch: Shader 10 finished CTA #2 (13263,0), 7 CTAs running
GPGPU-Sim uArch: core: 10, cta: 2 initialized @(13264,0)
GPGPU-Sim uArch: Shader 1 finished CTA #5 (13355,0), 7 CTAs running
GPGPU-Sim uArch: core:  1, cta: 5 initialized @(13356,0)
GPGPU-Sim uArch: Shader 14 finished CTA #6 (13376,0), 7 CTAs running
GPGPU-Sim uArch: core: 14, cta: 6 initialized @(13377,0)
GPGPU-Sim uArch: Shader 11 finished CTA #7 (13388,0), 7 CTAs running
GPGPU-Sim uArch: core: 11, cta: 7 initialized @(13389,0)
GPGPU-Sim uArch: Shader 4 finished CTA #1 (13413,0), 7 CTAs running
GPGPU-Sim uArch: core:  4, cta: 1 initialized @(13414,0)
GPGPU-Sim uArch: Shader 1 finished CTA #7 (13466,0), 7 CTAs running
GPGPU-Sim uArch: core:  1, cta: 7 initialized @(13467,0)
GPGPU-Sim uArch: Shader 4 finished CTA #2 (13488,0), 7 CTAs running
GPGPU-Sim uArch: core:  4, cta: 2 initialized @(13489,0)
GPGPU-Sim uArch: Shader 6 finished CTA #6 (13493,0), 7 CTAs running
GPGPU-Sim uArch: core:  6, cta: 6 initialized @(13494,0)
GPGPU-Sim uArch: cycles simulated: 13500  inst.: 2696401 (ipc=199.7) sim_rate=299600 (inst/sec) elapsed = 0:0:00:09 / Fri Jan 16 05:37:17 2015
GPGPU-Sim uArch: Shader 14 finished CTA #0 (13549,0), 7 CTAs running
GPGPU-Sim uArch: core: 14, cta: 0 initialized @(13550,0)
GPGPU-Sim uArch: Shader 4 finished CTA #5 (13592,0), 7 CTAs running
GPGPU-Sim uArch: core:  4, cta: 5 initialized @(13593,0)
GPGPU-Sim uArch: Shader 3 finished CTA #5 (13722,0), 7 CTAs running
GPGPU-Sim uArch: core:  3, cta: 5 initialized @(13723,0)
GPGPU-Sim PTX: 2900000 instructions simulated : ctaid=(58,5,0) tid=(0,0,0)
GPGPU-Sim uArch: Shader 13 finished CTA #3 (13771,0), 7 CTAs running
GPGPU-Sim uArch: core: 13, cta: 3 initialized @(13772,0)
GPGPU-Sim uArch: Shader 0 finished CTA #1 (13817,0), 7 CTAs running
GPGPU-Sim uArch: core:  0, cta: 1 initialized @(13818,0)
GPGPU-Sim uArch: Shader 5 finished CTA #1 (13898,0), 7 CTAs running
GPGPU-Sim uArch: core:  5, cta: 1 initialized @(13899,0)
GPGPU-Sim uArch: Shader 9 finished CTA #5 (13925,0), 7 CTAs running
GPGPU-Sim uArch: core:  9, cta: 5 initialized @(13926,0)
GPGPU-Sim uArch: Shader 8 finished CTA #4 (13953,0), 7 CTAs running
GPGPU-Sim uArch: core:  8, cta: 4 initialized @(13954,0)
GPGPU-Sim uArch: Shader 2 finished CTA #7 (13956,0), 7 CTAs running
GPGPU-Sim uArch: core:  2, cta: 7 initialized @(13957,0)
GPGPU-Sim uArch: Shader 0 finished CTA #6 (14017,0), 7 CTAs running
GPGPU-Sim uArch: core:  0, cta: 6 initialized @(14018,0)
GPGPU-Sim uArch: Shader 7 finished CTA #5 (14140,0), 7 CTAs running
GPGPU-Sim uArch: core:  7, cta: 5 initialized @(14141,0)
GPGPU-Sim uArch: Shader 6 finished CTA #7 (14170,0), 7 CTAs running
GPGPU-Sim uArch: core:  6, cta: 7 initialized @(14171,0)
GPGPU-Sim uArch: Shader 6 finished CTA #4 (14251,0), 7 CTAs running
GPGPU-Sim uArch: core:  6, cta: 4 initialized @(14252,0)
GPGPU-Sim uArch: Shader 7 finished CTA #0 (14254,0), 7 CTAs running
GPGPU-Sim uArch: core:  7, cta: 0 initialized @(14255,0)
GPGPU-Sim uArch: Shader 11 finished CTA #4 (14373,0), 7 CTAs running
GPGPU-Sim uArch: core: 11, cta: 4 initialized @(14374,0)
GPGPU-Sim uArch: Shader 9 finished CTA #4 (14377,0), 7 CTAs running
GPGPU-Sim uArch: core:  9, cta: 4 initialized @(14378,0)
GPGPU-Sim uArch: Shader 9 finished CTA #7 (14388,0), 7 CTAs running
GPGPU-Sim uArch: core:  9, cta: 7 initialized @(14389,0)
GPGPU-Sim PTX: 3000000 instructions simulated : ctaid=(10,4,0) tid=(0,0,0)
GPGPU-Sim uArch: Shader 8 finished CTA #2 (14400,0), 7 CTAs running
GPGPU-Sim uArch: core:  8, cta: 2 initialized @(14401,0)
GPGPU-Sim uArch: Shader 7 finished CTA #6 (14497,0), 7 CTAs running
GPGPU-Sim uArch: core:  7, cta: 6 initialized @(14498,0)
GPGPU-Sim uArch: Shader 10 finished CTA #4 (14508,0), 7 CTAs running
GPGPU-Sim uArch: core: 10, cta: 4 initialized @(14509,0)
GPGPU-Sim uArch: Shader 9 finished CTA #2 (14510,0), 7 CTAs running
GPGPU-Sim uArch: core:  9, cta: 2 initialized @(14511,0)
GPGPU-Sim uArch: Shader 9 finished CTA #6 (14590,0), 7 CTAs running
GPGPU-Sim uArch: core:  9, cta: 6 initialized @(14591,0)
GPGPU-Sim uArch: Shader 8 finished CTA #3 (14606,0), 7 CTAs running
GPGPU-Sim uArch: core:  8, cta: 3 initialized @(14607,0)
GPGPU-Sim uArch: Shader 6 finished CTA #2 (14664,0), 7 CTAs running
GPGPU-Sim uArch: core:  6, cta: 2 initialized @(14665,0)
GPGPU-Sim uArch: Shader 6 finished CTA #5 (14688,0), 7 CTAs running
GPGPU-Sim uArch: core:  6, cta: 5 initialized @(14689,0)
GPGPU-Sim uArch: Shader 14 finished CTA #7 (14714,0), 7 CTAs running
GPGPU-Sim uArch: core: 14, cta: 7 initialized @(14715,0)
GPGPU-Sim uArch: Shader 0 finished CTA #5 (14735,0), 7 CTAs running
GPGPU-Sim uArch: core:  0, cta: 5 initialized @(14736,0)
GPGPU-Sim uArch: Shader 11 finished CTA #6 (14919,0), 7 CTAs running
GPGPU-Sim uArch: core: 11, cta: 6 initialized @(14920,0)
GPGPU-Sim uArch: Shader 7 finished CTA #1 (14948,0), 7 CTAs running
GPGPU-Sim uArch: core:  7, cta: 1 initialized @(14949,0)
GPGPU-Sim uArch: cycles simulated: 15000  inst.: 2913708 (ipc=194.2) sim_rate=291370 (inst/sec) elapsed = 0:0:00:10 / Fri Jan 16 05:37:18 2015
GPGPU-Sim PTX: 3100000 instructions simulated : ctaid=(33,3,0) tid=(1,2,0)
GPGPU-Sim uArch: Shader 2 finished CTA #1 (15056,0), 7 CTAs running
GPGPU-Sim uArch: core:  2, cta: 1 initialized @(15057,0)
GPGPU-Sim uArch: Shader 0 finished CTA #2 (15059,0), 7 CTAs running
GPGPU-Sim uArch: core:  0, cta: 2 initialized @(15060,0)
GPGPU-Sim uArch: Shader 10 finished CTA #0 (15063,0), 7 CTAs running
GPGPU-Sim uArch: core: 10, cta: 0 initialized @(15064,0)
GPGPU-Sim uArch: Shader 2 finished CTA #0 (15069,0), 7 CTAs running
GPGPU-Sim uArch: core:  2, cta: 0 initialized @(15070,0)
GPGPU-Sim uArch: Shader 5 finished CTA #6 (15103,0), 7 CTAs running
GPGPU-Sim uArch: core:  5, cta: 6 initialized @(15104,0)
GPGPU-Sim uArch: Shader 10 finished CTA #6 (15142,0), 7 CTAs running
GPGPU-Sim uArch: core: 10, cta: 6 initialized @(15143,0)
GPGPU-Sim uArch: Shader 10 finished CTA #5 (15202,0), 7 CTAs running
GPGPU-Sim uArch: core: 10, cta: 5 initialized @(15203,0)
GPGPU-Sim uArch: Shader 5 finished CTA #0 (15469,0), 7 CTAs running
GPGPU-Sim uArch: core:  5, cta: 0 initialized @(15470,0)
GPGPU-Sim uArch: Shader 14 finished CTA #5 (15516,0), 7 CTAs running
GPGPU-Sim uArch: core: 14, cta: 5 initialized @(15517,0)
GPGPU-Sim uArch: Shader 6 finished CTA #6 (15634,0), 7 CTAs running
GPGPU-Sim uArch: core:  6, cta: 6 initialized @(15635,0)
GPGPU-Sim PTX: 3200000 instructions simulated : ctaid=(28,6,0) tid=(0,0,0)
GPGPU-Sim uArch: Shader 12 finished CTA #5 (15651,0), 7 CTAs running
GPGPU-Sim uArch: core: 12, cta: 5 initialized @(15652,0)
GPGPU-Sim uArch: Shader 14 finished CTA #0 (15685,0), 7 CTAs running
GPGPU-Sim uArch: core: 14, cta: 0 initialized @(15686,0)
GPGPU-Sim uArch: Shader 3 finished CTA #7 (15750,0), 7 CTAs running
GPGPU-Sim uArch: core:  3, cta: 7 initialized @(15751,0)
GPGPU-Sim uArch: Shader 4 finished CTA #5 (15756,0), 7 CTAs running
GPGPU-Sim uArch: core:  4, cta: 5 initialized @(15757,0)
GPGPU-Sim uArch: Shader 14 finished CTA #1 (15871,0), 7 CTAs running
GPGPU-Sim uArch: core: 14, cta: 1 initialized @(15872,0)
GPGPU-Sim uArch: Shader 10 finished CTA #2 (15907,0), 7 CTAs running
GPGPU-Sim uArch: core: 10, cta: 2 initialized @(15908,0)
GPGPU-Sim uArch: Shader 14 finished CTA #6 (15916,0), 7 CTAs running
GPGPU-Sim uArch: core: 14, cta: 6 initialized @(15917,0)
GPGPU-Sim uArch: Shader 1 finished CTA #5 (15919,0), 7 CTAs running
GPGPU-Sim uArch: core:  1, cta: 5 initialized @(15920,0)
GPGPU-Sim uArch: Shader 4 finished CTA #2 (15989,0), 7 CTAs running
GPGPU-Sim uArch: core:  4, cta: 2 initialized @(15990,0)
GPGPU-Sim uArch: Shader 3 finished CTA #5 (16003,0), 7 CTAs running
GPGPU-Sim uArch: core:  3, cta: 5 initialized @(16004,0)
GPGPU-Sim uArch: Shader 11 finished CTA #7 (16066,0), 7 CTAs running
GPGPU-Sim uArch: core: 11, cta: 7 initialized @(16067,0)
GPGPU-Sim uArch: Shader 11 finished CTA #2 (16081,0), 7 CTAs running
GPGPU-Sim uArch: core: 11, cta: 2 initialized @(16082,0)
GPGPU-Sim uArch: Shader 7 finished CTA #7 (16098,0), 7 CTAs running
GPGPU-Sim uArch: core:  7, cta: 7 initialized @(16099,0)
GPGPU-Sim uArch: Shader 4 finished CTA #1 (16171,0), 7 CTAs running
GPGPU-Sim uArch: core:  4, cta: 1 initialized @(16172,0)
GPGPU-Sim uArch: Shader 13 finished CTA #3 (16188,0), 7 CTAs running
GPGPU-Sim uArch: core: 13, cta: 3 initialized @(16189,0)
GPGPU-Sim uArch: Shader 0 finished CTA #1 (16207,0), 7 CTAs running
GPGPU-Sim uArch: core:  0, cta: 1 initialized @(16208,0)
GPGPU-Sim PTX: 3300000 instructions simulated : ctaid=(44,6,0) tid=(0,1,0)
GPGPU-Sim uArch: Shader 1 finished CTA #3 (16347,0), 7 CTAs running
GPGPU-Sim uArch: core:  1, cta: 3 initialized @(16348,0)
GPGPU-Sim uArch: Shader 0 finished CTA #0 (16351,0), 7 CTAs running
GPGPU-Sim uArch: core:  0, cta: 0 initialized @(16352,0)
GPGPU-Sim uArch: cycles simulated: 16500  inst.: 3142727 (ipc=190.5) sim_rate=285702 (inst/sec) elapsed = 0:0:00:11 / Fri Jan 16 05:37:19 2015
GPGPU-Sim uArch: Shader 5 finished CTA #1 (16569,0), 7 CTAs running
GPGPU-Sim uArch: core:  5, cta: 1 initialized @(16570,0)
GPGPU-Sim uArch: Shader 9 finished CTA #5 (16702,0), 7 CTAs running
GPGPU-Sim uArch: core:  9, cta: 5 initialized @(16703,0)
GPGPU-Sim uArch: Shader 2 finished CTA #4 (16879,0), 7 CTAs running
GPGPU-Sim uArch: core:  2, cta: 4 initialized @(16880,0)
GPGPU-Sim PTX: 3400000 instructions simulated : ctaid=(41,6,0) tid=(2,0,0)
GPGPU-Sim uArch: Shader 14 finished CTA #6 (16974,0), 7 CTAs running
GPGPU-Sim uArch: core: 14, cta: 6 initialized @(16975,0)
GPGPU-Sim uArch: Shader 1 finished CTA #5 (16993,0), 7 CTAs running
GPGPU-Sim uArch: core:  1, cta: 5 initialized @(16994,0)
GPGPU-Sim uArch: Shader 4 finished CTA #2 (17059,0), 7 CTAs running
GPGPU-Sim uArch: core:  4, cta: 2 initialized @(17060,0)
GPGPU-Sim uArch: Shader 9 finished CTA #2 (17082,0), 7 CTAs running
GPGPU-Sim uArch: core:  9, cta: 2 initialized @(17083,0)
GPGPU-Sim uArch: Shader 14 finished CTA #7 (17099,0), 7 CTAs running
GPGPU-Sim uArch: core: 14, cta: 7 initialized @(17100,0)
GPGPU-Sim uArch: Shader 10 finished CTA #4 (17101,0), 7 CTAs running
GPGPU-Sim uArch: core: 10, cta: 4 initialized @(17102,0)
GPGPU-Sim uArch: Shader 6 finished CTA #5 (17110,0), 7 CTAs running
GPGPU-Sim uArch: core:  6, cta: 5 initialized @(17111,0)
GPGPU-Sim uArch: Shader 8 finished CTA #3 (17112,0), 7 CTAs running
GPGPU-Sim uArch: core:  8, cta: 3 initialized @(17113,0)
GPGPU-Sim uArch: Shader 9 finished CTA #6 (17119,0), 7 CTAs running
GPGPU-Sim uArch: core:  9, cta: 6 initialized @(17120,0)
GPGPU-Sim uArch: Shader 6 finished CTA #2 (17145,0), 7 CTAs running
GPGPU-Sim uArch: core:  6, cta: 2 initialized @(17146,0)
GPGPU-Sim uArch: Shader 0 finished CTA #5 (17151,0), 7 CTAs running
GPGPU-Sim uArch: core:  0, cta: 5 initialized @(17152,0)
GPGPU-Sim uArch: Shader 3 finished CTA #5 (17190,0), 7 CTAs running
GPGPU-Sim uArch: core:  3, cta: 5 initialized @(17191,0)
GPGPU-Sim uArch: Shader 2 finished CTA #6 (17198,0), 7 CTAs running
GPGPU-Sim uArch: core:  2, cta: 6 initialized @(17199,0)
GPGPU-Sim uArch: Shader 11 finished CTA #6 (17230,0), 7 CTAs running
GPGPU-Sim uArch: core: 11, cta: 6 initialized @(17231,0)
GPGPU-Sim uArch: Shader 10 finished CTA #0 (17234,0), 7 CTAs running
GPGPU-Sim uArch: core: 10, cta: 0 initialized @(17235,0)
GPGPU-Sim uArch: Shader 5 finished CTA #6 (17279,0), 7 CTAs running
GPGPU-Sim uArch: core:  5, cta: 6 initialized @(17280,0)
GPGPU-Sim uArch: Shader 7 finished CTA #1 (17287,0), 7 CTAs running
GPGPU-Sim uArch: core:  7, cta: 1 initialized @(17288,0)
GPGPU-Sim uArch: Shader 10 finished CTA #6 (17299,0), 7 CTAs running
GPGPU-Sim uArch: core: 10, cta: 6 initialized @(17300,0)
GPGPU-Sim uArch: Shader 2 finished CTA #0 (17304,0), 7 CTAs running
GPGPU-Sim uArch: core:  2, cta: 0 initialized @(17305,0)
GPGPU-Sim uArch: Shader 13 finished CTA #4 (17329,0), 7 CTAs running
GPGPU-Sim uArch: core: 13, cta: 4 initialized @(17330,0)
GPGPU-Sim uArch: Shader 7 finished CTA #6 (17341,0), 7 CTAs running
GPGPU-Sim uArch: core:  7, cta: 6 initialized @(17342,0)
GPGPU-Sim uArch: Shader 4 finished CTA #0 (17347,0), 7 CTAs running
GPGPU-Sim uArch: core:  4, cta: 0 initialized @(17348,0)
GPGPU-Sim uArch: Shader 0 finished CTA #2 (17397,0), 7 CTAs running
GPGPU-Sim uArch: core:  0, cta: 2 initialized @(17398,0)
GPGPU-Sim uArch: Shader 10 finished CTA #7 (17409,0), 7 CTAs running
GPGPU-Sim uArch: core: 10, cta: 7 initialized @(17410,0)
GPGPU-Sim uArch: Shader 2 finished CTA #1 (17440,0), 7 CTAs running
GPGPU-Sim uArch: core:  2, cta: 1 initialized @(17441,0)
GPGPU-Sim uArch: Shader 10 finished CTA #5 (17453,0), 7 CTAs running
GPGPU-Sim uArch: core: 10, cta: 5 initialized @(17454,0)
GPGPU-Sim uArch: Shader 14 finished CTA #2 (17516,0), 7 CTAs running
GPGPU-Sim uArch: core: 14, cta: 2 initialized @(17517,0)
GPGPU-Sim PTX: 3500000 instructions simulated : ctaid=(9,7,0) tid=(3,3,0)
GPGPU-Sim uArch: Shader 8 finished CTA #0 (17597,0), 7 CTAs running
GPGPU-Sim uArch: core:  8, cta: 0 initialized @(17598,0)
GPGPU-Sim uArch: Shader 14 finished CTA #5 (17673,0), 7 CTAs running
GPGPU-Sim uArch: core: 14, cta: 5 initialized @(17674,0)
GPGPU-Sim uArch: Shader 5 finished CTA #0 (17695,0), 7 CTAs running
GPGPU-Sim uArch: core:  5, cta: 0 initialized @(17696,0)
GPGPU-Sim uArch: Shader 5 finished CTA #3 (17708,0), 7 CTAs running
GPGPU-Sim uArch: core:  5, cta: 3 initialized @(17709,0)
GPGPU-Sim uArch: Shader 12 finished CTA #2 (17738,0), 7 CTAs running
GPGPU-Sim uArch: core: 12, cta: 2 initialized @(17739,0)
GPGPU-Sim uArch: Shader 1 finished CTA #1 (17778,0), 7 CTAs running
GPGPU-Sim uArch: core:  1, cta: 1 initialized @(17779,0)
GPGPU-Sim uArch: Shader 1 finished CTA #2 (17832,0), 7 CTAs running
GPGPU-Sim uArch: core:  1, cta: 2 initialized @(17833,0)
GPGPU-Sim uArch: Shader 14 finished CTA #0 (17836,0), 7 CTAs running
GPGPU-Sim uArch: core: 14, cta: 0 initialized @(17837,0)
GPGPU-Sim uArch: Shader 6 finished CTA #6 (17865,0), 7 CTAs running
GPGPU-Sim uArch: core:  6, cta: 6 initialized @(17866,0)
GPGPU-Sim uArch: Shader 12 finished CTA #5 (17882,0), 7 CTAs running
GPGPU-Sim uArch: core: 12, cta: 5 initialized @(17883,0)
GPGPU-Sim uArch: Shader 3 finished CTA #7 (17953,0), 7 CTAs running
GPGPU-Sim uArch: core:  3, cta: 7 initialized @(17954,0)
GPGPU-Sim uArch: cycles simulated: 18000  inst.: 3369158 (ipc=187.2) sim_rate=280763 (inst/sec) elapsed = 0:0:00:12 / Fri Jan 16 05:37:20 2015
GPGPU-Sim uArch: Shader 8 finished CTA #5 (18004,0), 7 CTAs running
GPGPU-Sim uArch: core:  8, cta: 5 initialized @(18005,0)
GPGPU-Sim uArch: Shader 4 finished CTA #5 (18055,0), 7 CTAs running
GPGPU-Sim uArch: core:  4, cta: 5 initialized @(18056,0)
GPGPU-Sim uArch: Shader 13 finished CTA #5 (18121,0), 7 CTAs running
GPGPU-Sim uArch: core: 13, cta: 5 initialized @(18122,0)
GPGPU-Sim PTX: 3600000 instructions simulated : ctaid=(25,7,0) tid=(0,1,0)
GPGPU-Sim uArch: Shader 14 finished CTA #1 (18137,0), 7 CTAs running
GPGPU-Sim uArch: core: 14, cta: 1 initialized @(18138,0)
GPGPU-Sim uArch: Shader 11 finished CTA #3 (18152,0), 7 CTAs running
GPGPU-Sim uArch: core: 11, cta: 3 initialized @(18153,0)
GPGPU-Sim uArch: Shader 3 finished CTA #0 (18189,0), 7 CTAs running
GPGPU-Sim uArch: core:  3, cta: 0 initialized @(18190,0)
GPGPU-Sim uArch: Shader 5 finished CTA #4 (18233,0), 7 CTAs running
GPGPU-Sim uArch: core:  5, cta: 4 initialized @(18234,0)
GPGPU-Sim uArch: Shader 4 finished CTA #6 (18260,0), 7 CTAs running
GPGPU-Sim uArch: core:  4, cta: 6 initialized @(18261,0)
GPGPU-Sim uArch: Shader 10 finished CTA #2 (18261,0), 7 CTAs running
GPGPU-Sim uArch: core: 10, cta: 2 initialized @(18262,0)
GPGPU-Sim uArch: Shader 2 finished CTA #5 (18304,0), 7 CTAs running
GPGPU-Sim uArch: core:  2, cta: 5 initialized @(18305,0)
GPGPU-Sim uArch: Shader 12 finished CTA #4 (18306,0), 7 CTAs running
[...]
gpgpu_stall_shd_mem[t_mem][icnt_rc] = 0
gpgpu_stall_shd_mem[t_mem][data_port_stall] = 0
gpgpu_stall_shd_mem[s_mem][bk_conf] = 0
gpgpu_stall_shd_mem[gl_mem][bk_conf] = 0
gpgpu_stall_shd_mem[gl_mem][coal_stall] = 12288
gpgpu_stall_shd_mem[gl_mem][data_port_stall] = 0
gpgpu_stall_shd_mem[g_mem_ld][mshr_rc] = 0
gpgpu_stall_shd_mem[g_mem_ld][icnt_rc] = 0
gpgpu_stall_shd_mem[g_mem_ld][wb_icnt_rc] = 0
gpgpu_stall_shd_mem[g_mem_ld][wb_rsrv_fail] = 0
gpgpu_stall_shd_mem[g_mem_st][mshr_rc] = 0
gpgpu_stall_shd_mem[g_mem_st][icnt_rc] = 0
gpgpu_stall_shd_mem[g_mem_st][wb_icnt_rc] = 0
gpgpu_stall_shd_mem[g_mem_st][wb_rsrv_fail] = 0
gpgpu_stall_shd_mem[l_mem_ld][mshr_rc] = 0
gpgpu_stall_shd_mem[l_mem_ld][icnt_rc] = 0
gpgpu_stall_shd_mem[l_mem_ld][wb_icnt_rc] = 0
gpgpu_stall_shd_mem[l_mem_ld][wb_rsrv_fail] = 0
gpgpu_stall_shd_mem[l_mem_st][mshr_rc] = 0
gpgpu_stall_shd_mem[l_mem_st][icnt_rc] = 0
gpgpu_stall_shd_mem[l_mem_ld][wb_icnt_rc] = 0
gpgpu_stall_shd_mem[l_mem_ld][wb_rsrv_fail] = 0
gpu_reg_bank_conflict_stalls = 0
Warp Occupancy Distribution:
Stall:19383	W0_Idle:133772	W0_Scoreboard:3166477	W1:1107828	W2:557988	W3:329246	W4:222682	W5:163476	W6:123440	W7:100592	W8:92634	W9:75056	W10:61056	W11:62160	W12:61888	W13:54768	W14:55568	W15:68512	W16:2715152	W17:0	W18:0	W19:0	W20:0	W21:0	W22:0	W23:0	W24:0	W25:0	W26:0	W27:0	W28:0	W29:0	W30:0	W31:0	W32:0
traffic_breakdown_coretomem[CONST_ACC_R] = 120 {8:15,}
traffic_breakdown_coretomem[GLOBAL_ACC_W] = 655360 {40:16384,}
traffic_breakdown_coretomem[INST_ACC_R] = 480 {8:60,}
traffic_breakdown_memtocore[CONST_ACC_R] = 1080 {72:15,}
traffic_breakdown_memtocore[GLOBAL_ACC_W] = 131072 {8:16384,}
traffic_breakdown_memtocore[INST_ACC_R] = 8160 {136:60,}
maxmrqlatency = 22 
maxdqlatency = 0 
maxmflatency = 289 
averagemflatency = 151 
max_icnt2mem_latency = 36 
max_icnt2sh_latency = 312224 
mrq_lat_table:1517 	28 	56 	38 	10 	0 	0 	0 	0 	0 	0 	0 	0 	0 	0 	0 	0 	0 	0 	0 	0 	0 	0 	0 	0 	0 	0 	0 	0 	0 	0 	0 	
dq_lat_table:0 	0 	0 	0 	0 	0 	0 	0 	0 	0 	0 	0 	0 	0 	0 	0 	0 	0 	0 	0 	0 	0 	0 	0 	0 	0 	0 	0 	0 	0 	0 	0 	
mf_lat_table:0 	0 	0 	0 	0 	0 	0 	16233 	166 	0 	0 	0 	0 	0 	0 	0 	0 	0 	0 	0 	0 	0 	0 	0 	0 	0 	0 	0 	0 	0 	0 	0 	
icnt2mem_lat_table:0 	0 	0 	12111 	4345 	3 	0 	0 	0 	0 	0 	0 	0 	0 	0 	0 	0 	0 	0 	0 	0 	0 	0 	0 	
icnt2sh_lat_table:0 	0 	0 	2 	13 	0 	0 	0 	0 	0 	0 	384 	384 	592 	1780 	1996 	3316 	5616 	2316 	0 	0 	0 	0 	0 	
mf_lat_pw_table:0 	0 	0 	0 	0 	0 	0 	608 	1 	0 	0 	0 	0 	0 	0 	0 	0 	0 	0 	0 	0 	0 	0 	0 	0 	0 	0 	0 	0 	0 	0 	0 	
maximum concurrent accesses to same row:
dram[0]:         1         0         0         0         0         0         0         0         0         0         0         0         0         0         0         0 
dram[1]:         0         0         0         0         0         0         0         0         0         0         0         0         0         0         0         0 
dram[2]:         0         0         0         0         0         0         0         0         0         0         0         0         0         0         0         0 
dram[3]:         0         0         0         0         0         0         0         0         0         0         0         0         0         0         0         0 
dram[4]:         0         0         0         0         0         0         0         0         0         0         0         0         0         0         0         0 
dram[5]:         0         0         0         0         0         0         0         0         0         0         0         0         0         0         0         0 
maximum service time to same row:
dram[0]:       337         0         0         0      2156      3116     41047     44341         0         0         0         0         0         0         0         0 
dram[1]:      1260         0         0         0      2153      3113     41044     44338         0         0         0         0         0         0         0         0 
dram[2]:         0         0         0         0      2150      2134     41041     46263         0         0         0         0         0         0         0         0 
dram[3]:         0         0         0         0      2147      2131     41038     46260         0         0         0         0         0         0         0         0 
dram[4]:         0         0         0         0      3122      2128     44347     46257         0         0         0         0         0         0         0         0 
dram[5]:         0         0         0         0      3119      2125     44344     46254         0         0         0         0         0         0         0         0 
average row accesses per activate:
dram[0]:  1.000000      -nan      -nan      -nan 41.000000 40.000000 96.000000 94.000000      -nan      -nan      -nan      -nan      -nan      -nan      -nan      -nan 
dram[1]:  2.000000      -nan      -nan      -nan 41.000000 40.000000 96.000000 94.000000      -nan      -nan      -nan      -nan      -nan      -nan      -nan      -nan 
dram[2]:      -nan      -nan      -nan      -nan 41.000000 49.000000 96.000000 91.000000      -nan      -nan      -nan      -nan      -nan      -nan      -nan      -nan 
dram[3]:      -nan      -nan      -nan      -nan 41.000000 49.000000 96.000000 91.000000      -nan      -nan      -nan      -nan      -nan      -nan      -nan      -nan 
dram[4]:      -nan      -nan      -nan      -nan 40.000000 49.000000 94.000000 91.000000      -nan      -nan      -nan      -nan      -nan      -nan      -nan      -nan 
dram[5]:      -nan      -nan      -nan      -nan 40.000000 49.000000 94.000000 91.000000      -nan      -nan      -nan      -nan      -nan      -nan      -nan      -nan 
average row locality = 1649/28 = 58.892857
number of total memory accesses made:
dram[0]:         0         0         0         0         0         0         0         0         0         0         0         0         0         0         0         0 
dram[1]:         0         0         0         0         0         0         0         0         0         0         0         0         0         0         0         0 
dram[2]:         0         0         0         0         0         0         0         0         0         0         0         0         0         0         0         0 
dram[3]:         0         0         0         0         0         0         0         0         0         0         0         0         0         0         0         0 
dram[4]:         0         0         0         0         0         0         0         0         0         0         0         0         0         0         0         0 
dram[5]:         0         0         0         0         0         0         0         0         0         0         0         0         0         0         0         0 
total accesses: 0
min_bank_accesses = 0!
min_chip_accesses = 0!
number of total read accesses:
dram[0]:         3         0         0         0        10        10        32        32         0         0         0         0         0         0         0         0 
dram[1]:         2         0         0         0        10        10        32        32         0         0         0         0         0         0         0         0 
dram[2]:         0         0         0         0        10        12        32        32         0         0         0         0         0         0         0         0 
dram[3]:         0         0         0         0        10        12        32        32         0         0         0         0         0         0         0         0 
dram[4]:         0         0         0         0        10        12        32        32         0         0         0         0         0         0         0         0 
dram[5]:         0         0         0         0        10        12        32        32         0         0         0         0         0         0         0         0 
total reads: 517
min_bank_accesses = 0!
chip skew: 87/86 = 1.01
number of total write accesses:
dram[0]:         0         0         0         0        31        30        64        62         0         0         0         0         0         0         0         0 
dram[1]:         0         0         0         0        31        30        64        62         0         0         0         0         0         0         0         0 
dram[2]:         0         0         0         0        31        37        64        59         0         0         0         0         0         0         0         0 
dram[3]:         0         0         0         0        31        37        64        59         0         0         0         0         0         0         0         0 
dram[4]:         0         0         0         0        30        37        62        59         0         0         0         0         0         0         0         0 
dram[5]:         0         0         0         0        30        37        62        59         0         0         0         0         0         0         0         0 
total reads: 1132
min_bank_accesses = 0!
chip skew: 191/187 = 1.02
average mf latency per bank:
dram[0]:       1300    none      none      none        1251      1247      1630      1621    none      none      none      none      none      none      none      none  
dram[1]:          0    none      none      none        1237      1230      1608      1599    none      none      none      none      none      none      none      none  
dram[2]:     none      none      none      none        1222      1254      1587      1714    none      none      none      none      none      none      none      none  
dram[3]:     none      none      none      none        1206      1239      1566      1691    none      none      none      none      none      none      none      none  
dram[4]:     none      none      none      none        1281      1223      1664      1669    none      none      none      none      none      none      none      none  
dram[5]:     none      none      none      none        1264      1207      1642      1646    none      none      none      none      none      none      none      none  
maximum mf latency per bank:
dram[0]:        278         0         0         0       275       271       274       266         0         0         0         0         0         0         0         0
dram[1]:          0         0         0         0       274       266       272       264         0         0         0         0         0         0         0         0
dram[2]:          0         0         0         0       289       280       270       265         0         0         0         0         0         0         0         0
dram[3]:          0         0         0         0       284       280       268       263         0         0         0         0         0         0         0         0
dram[4]:          0         0         0         0       279       273       270       261         0         0         0         0         0         0         0         0
dram[5]:          0         0         0         0       276       276       268       259         0         0         0         0         0         0         0         0
Memory Partition 0: 
Cache L2_bank_000:
MSHR contents

Cache L2_bank_001:
MSHR contents

In Dram Latency Queue (total = 0): 
DRAM[0]: 16 bks, busW=4 BL=8 CL=12, tRRD=2 tCCD=6, tRCD=12 tRAS=28 tRP=12 tRC=40
n_cmd=412136 n_nop=411766 n_act=7 n_pre=2 n_req=274 n_rd=174 n_write=187 bw_util=0.001752
n_activity=3409 dram_eff=0.2118
bk0: 6a 412065i bk1: 0a 412135i bk2: 0a 412140i bk3: 0a 412140i bk4: 20a 411925i bk5: 20a 411923i bk6: 64a 411564i bk7: 64a 411611i bk8: 0a 412133i bk9: 0a 412133i bk10: 0a 412134i bk11: 0a 412134i bk12: 0a 412135i bk13: 0a 412135i bk14: 0a 412135i bk15: 0a 412135i 
dram_util_bins: 0 0 0 0 0 0 0 0 0 0
dram_eff_bins: 0 0 0 0 0 0 0 0 0 0
mrqq: max=2 avg=0.000279034
Memory Partition 1: 
Cache L2_bank_002:
MSHR contents

Cache L2_bank_003:
MSHR contents

In Dram Latency Queue (total = 0): 
DRAM[1]: 16 bks, busW=4 BL=8 CL=12, tRRD=2 tCCD=6, tRCD=12 tRAS=28 tRP=12 tRC=40
n_cmd=412136 n_nop=411772 n_act=5 n_pre=0 n_req=273 n_rd=172 n_write=187 bw_util=0.001742
n_activity=3319 dram_eff=0.2163
bk0: 4a 412117i bk1: 0a 412137i bk2: 0a 412139i bk3: 0a 412140i bk4: 20a 411923i bk5: 20a 411923i bk6: 64a 411565i bk7: 64a 411610i bk8: 0a 412133i bk9: 0a 412133i bk10: 0a 412134i bk11: 0a 412134i bk12: 0a 412135i bk13: 0a 412135i bk14: 0a 412135i bk15: 0a 412135i 
dram_util_bins: 0 0 0 0 0 0 0 0 0 0
dram_eff_bins: 0 0 0 0 0 0 0 0 0 0
mrqq: max=2 avg=0.000279034
Memory Partition 2: 
Cache L2_bank_004:
MSHR contents

Cache L2_bank_005:
MSHR contents

In Dram Latency Queue (total = 0): 
DRAM[2]: 16 bks, busW=4 BL=8 CL=12, tRRD=2 tCCD=6, tRCD=12 tRAS=28 tRP=12 tRC=40
n_cmd=412136 n_nop=411769 n_act=4 n_pre=0 n_req=277 n_rd=172 n_write=191 bw_util=0.001762
n_activity=3293 dram_eff=0.2205
bk0: 0a 412137i bk1: 0a 412139i bk2: 0a 412140i bk3: 0a 412140i bk4: 20a 411906i bk5: 24a 411859i bk6: 64a 411566i bk7: 64a 411592i bk8: 0a 412133i bk9: 0a 412133i bk10: 0a 412133i bk11: 0a 412134i bk12: 0a 412134i bk13: 0a 412135i bk14: 0a 412135i bk15: 0a 412135i 
dram_util_bins: 0 0 0 0 0 0 0 0 0 0
dram_eff_bins: 0 0 0 0 0 0 0 0 0 0
mrqq: max=4 avg=0.000672108
Memory Partition 3: 
Cache L2_bank_006:
MSHR contents

Cache L2_bank_007:
MSHR contents

In Dram Latency Queue (total = 0): 
DRAM[3]: 16 bks, busW=4 BL=8 CL=12, tRRD=2 tCCD=6, tRCD=12 tRAS=28 tRP=12 tRC=40
n_cmd=412136 n_nop=411769 n_act=4 n_pre=0 n_req=277 n_rd=172 n_write=191 bw_util=0.001762
n_activity=3293 dram_eff=0.2205
bk0: 0a 412137i bk1: 0a 412139i bk2: 0a 412140i bk3: 0a 412140i bk4: 20a 411907i bk5: 24a 411860i bk6: 64a 411565i bk7: 64a 411591i bk8: 0a 412133i bk9: 0a 412133i bk10: 0a 412133i bk11: 0a 412134i bk12: 0a 412134i bk13: 0a 412135i bk14: 0a 412135i bk15: 0a 412135i 
dram_util_bins: 0 0 0 0 0 0 0 0 0 0
dram_eff_bins: 0 0 0 0 0 0 0 0 0 0
mrqq: max=4 avg=0.000669682
Memory Partition 4: 
Cache L2_bank_008:
MSHR contents

Cache L2_bank_009:
MSHR contents

In Dram Latency Queue (total = 0): 
DRAM[4]: 16 bks, busW=4 BL=8 CL=12, tRRD=2 tCCD=6, tRCD=12 tRAS=28 tRP=12 tRC=40
n_cmd=412136 n_nop=411772 n_act=4 n_pre=0 n_req=274 n_rd=172 n_write=188 bw_util=0.001747
n_activity=3255 dram_eff=0.2212
bk0: 0a 412137i bk1: 0a 412139i bk2: 0a 412139i bk3: 0a 412139i bk4: 20a 411923i bk5: 24a 411866i bk6: 64a 411613i bk7: 64a 411590i bk8: 0a 412132i bk9: 0a 412133i bk10: 0a 412133i bk11: 0a 412135i bk12: 0a 412135i bk13: 0a 412135i bk14: 0a 412135i bk15: 0a 412137i 
dram_util_bins: 0 0 0 0 0 0 0 0 0 0
dram_eff_bins: 0 0 0 0 0 0 0 0 0 0
mrqq: max=3 avg=0.000439175
Memory Partition 5: 
Cache L2_bank_010:
MSHR contents

Cache L2_bank_011:
MSHR contents

In Dram Latency Queue (total = 0): 
DRAM[5]: 16 bks, busW=4 BL=8 CL=12, tRRD=2 tCCD=6, tRCD=12 tRAS=28 tRP=12 tRC=40
n_cmd=412136 n_nop=411772 n_act=4 n_pre=0 n_req=274 n_rd=172 n_write=188 bw_util=0.001747
n_activity=3256 dram_eff=0.2211
bk0: 0a 412137i bk1: 0a 412139i bk2: 0a 412139i bk3: 0a 412139i bk4: 20a 411923i bk5: 24a 411866i bk6: 64a 411613i bk7: 64a 411591i bk8: 0a 412132i bk9: 0a 412133i bk10: 0a 412133i bk11: 0a 412135i bk12: 0a 412135i bk13: 0a 412135i bk14: 0a 412135i bk15: 0a 412137i 
dram_util_bins: 0 0 0 0 0 0 0 0 0 0
dram_eff_bins: 0 0 0 0 0 0 0 0 0 0
mrqq: max=3 avg=0.000436749

========= L2 cache stats =========
L2_cache_bank[0]: Access = 1389, Miss = 45, Miss_rate = 0.032, Pending_hits = 62, Reservation_fails = 632
L2_cache_bank[1]: Access = 1344, Miss = 42, Miss_rate = 0.031, Pending_hits = 50, Reservation_fails = 302
L2_cache_bank[2]: Access = 1374, Miss = 44, Miss_rate = 0.032, Pending_hits = 59, Reservation_fails = 394
L2_cache_bank[3]: Access = 1344, Miss = 42, Miss_rate = 0.031, Pending_hits = 50, Reservation_fails = 302
L2_cache_bank[4]: Access = 1344, Miss = 42, Miss_rate = 0.031, Pending_hits = 53, Reservation_fails = 301
L2_cache_bank[5]: Access = 1408, Miss = 44, Miss_rate = 0.031, Pending_hits = 52, Reservation_fails = 447
L2_cache_bank[6]: Access = 1344, Miss = 42, Miss_rate = 0.031, Pending_hits = 53, Reservation_fails = 301
L2_cache_bank[7]: Access = 1408, Miss = 44, Miss_rate = 0.031, Pending_hits = 52, Reservation_fails = 447
L2_cache_bank[8]: Access = 1344, Miss = 42, Miss_rate = 0.031, Pending_hits = 50, Reservation_fails = 302
L2_cache_bank[9]: Access = 1408, Miss = 44, Miss_rate = 0.031, Pending_hits = 52, Reservation_fails = 447
L2_cache_bank[10]: Access = 1344, Miss = 42, Miss_rate = 0.031, Pending_hits = 50, Reservation_fails = 302
L2_cache_bank[11]: Access = 1408, Miss = 44, Miss_rate = 0.031, Pending_hits = 52, Reservation_fails = 447
L2_total_cache_accesses = 16459
L2_total_cache_misses = 517
L2_total_cache_miss_rate = 0.0314
L2_total_cache_pending_hits = 635
L2_total_cache_reservation_fails = 4624
L2_total_cache_breakdown:
	L2_cache_stats_breakdown[CONST_ACC_R][HIT] = 11
	L2_cache_stats_breakdown[CONST_ACC_R][HIT_RESERVED] = 3
	L2_cache_stats_breakdown[CONST_ACC_R][MISS] = 1
	L2_cache_stats_breakdown[CONST_ACC_R][RESERVATION_FAIL] = 109
	L2_cache_stats_breakdown[GLOBAL_ACC_W][HIT] = 15252
	L2_cache_stats_breakdown[GLOBAL_ACC_W][HIT_RESERVED] = 620
	L2_cache_stats_breakdown[GLOBAL_ACC_W][MISS] = 512
	L2_cache_stats_breakdown[GLOBAL_ACC_W][RESERVATION_FAIL] = 4178
	L2_cache_stats_breakdown[INST_ACC_R][HIT] = 44
	L2_cache_stats_breakdown[INST_ACC_R][HIT_RESERVED] = 12
	L2_cache_stats_breakdown[INST_ACC_R][MISS] = 4
	L2_cache_stats_breakdown[INST_ACC_R][RESERVATION_FAIL] = 337
L2_cache_data_port_util = 0.004
L2_cache_fill_port_util = 0.001

icnt_total_pkts_mem_to_simt=16729
icnt_total_pkts_simt_to_mem=32843
LD_mem_lat_dist  0 0 0 0 0 0 0 0 0 0 0 0 0 0 0 0 0 0 0 0 0 0 0 0 0 0 0
ST_mem_lat_dist  0 0 0 0 0 0 0 0 0 0 0 0 0 0 0 0 0 0 0 0 0 0 0 0 0 0 0
----------------------------Interconnect-DETAILS--------------------------------
Class 0:
Packet latency average = 8.17483
	minimum = 6
	maximum = 34
Network latency average = 7.39741
	minimum = 6
	maximum = 34
Slowest packet = 14
Flit latency average = 7.14597
	minimum = 6
	maximum = 34
Slowest flit = 14
Fragmentation average = 0
	minimum = 0
	maximum = 0
Injected packet rate average = 0.00390483
	minimum = 0.00328289 (at node 13)
	maximum = 0.00450957 (at node 20)
Accepted packet rate average = 0.00390483
	minimum = 0.00328289 (at node 13)
	maximum = 0.00450957 (at node 20)
Injected flit rate average = 0.00588037
	minimum = 0.00430459 (at node 16)
	maximum = 0.00762591 (at node 4)
Accepted flit rate average= 0.00588037
	minimum = 0.00334054 (at node 13)
	maximum = 0.00901914 (at node 20)
Injected packet length average = 1.50592
Accepted packet length average = 1.50592
Total in-flight flits = 0 (0 measured)
====== Overall Traffic Statistics ======
====== Traffic class 0 ======
Packet latency average = 8.17483 (1 samples)
	minimum = 6 (1 samples)
	maximum = 34 (1 samples)
Network latency average = 7.39741 (1 samples)
	minimum = 6 (1 samples)
	maximum = 34 (1 samples)
Flit latency average = 7.14597 (1 samples)
	minimum = 6 (1 samples)
	maximum = 34 (1 samples)
Fragmentation average = 0 (1 samples)
	minimum = 0 (1 samples)
	maximum = 0 (1 samples)
Injected packet rate average = 0.00390483 (1 samples)
	minimum = 0.00328289 (1 samples)
	maximum = 0.00450957 (1 samples)
Accepted packet rate average = 0.00390483 (1 samples)
	minimum = 0.00328289 (1 samples)
	maximum = 0.00450957 (1 samples)
Injected flit rate average = 0.00588037 (1 samples)
	minimum = 0.00430459 (1 samples)
	maximum = 0.00762591 (1 samples)
Accepted flit rate average = 0.00588037 (1 samples)
	minimum = 0.00334054 (1 samples)
	maximum = 0.00901914 (1 samples)
Injected packet size average = 1.50592 (1 samples)
Accepted packet size average = 1.50592 (1 samples)
Hops average = 1 (1 samples)
----------------------------END-of-Interconnect-DETAILS-------------------------


gpgpu_simulation_time = 0 days, 0 hrs, 3 min, 14 sec (194 sec)
gpgpu_simulation_rate = 270410 (inst/sec)
gpgpu_simulation_rate = 1609 (cycle/sec)
