

        *** GPGPU-Sim Simulator Version 3.2.2  [build 17315] ***


GPGPU-Sim PTX: simulation mode 0 (can change with PTX_SIM_MODE_FUNC environment variable:
               1=functional simulation only, 0=detailed performance simulator)
GPGPU-Sim: Configuration options:

-network_mode                           1 # Interconnection network mode
-inter_config_file   config_fermi_islip.icnt # Interconnection network config file
-gpgpu_ptx_use_cuobjdump                    1 # Use cuobjdump to extract ptx and sass from binaries
-gpgpu_experimental_lib_support                    0 # Try to extract code from cuda libraries [Broken because of unknown cudaGetExportTable]
-gpgpu_ptx_convert_to_ptxplus                    0 # Convert SASS (native ISA) to ptxplus and run ptxplus
-gpgpu_ptx_force_max_capability                   20 # Force maximum compute capability
-gpgpu_ptx_inst_debug_to_file                    0 # Dump executed instructions' debug information to file
-gpgpu_ptx_inst_debug_file       inst_debug.txt # Executed instructions' debug output file
-gpgpu_ptx_inst_debug_thread_uid                    1 # Thread UID for executed instructions' debug output
-gpgpu_simd_model                       1 # 1 = post-dominator
-gpgpu_shader_core_pipeline              1536:32 # shader core pipeline config, i.e., {<nthread>:<warpsize>}
-gpgpu_tex_cache:l1  4:128:24,L:R:m:N,F:128:4,128:2 # per-shader L1 texture cache  (READ-ONLY) config  {<nsets>:<bsize>:<assoc>,<rep>:<wr>:<alloc>:<wr_alloc>,<mshr>:<N>:<merge>,<mq>:<rf>}
-gpgpu_const_cache:l1 64:64:2,L:R:f:N,A:2:32,4 # per-shader L1 constant memory cache  (READ-ONLY) config  {<nsets>:<bsize>:<assoc>,<rep>:<wr>:<alloc>:<wr_alloc>,<mshr>:<N>:<merge>,<mq>} 
-gpgpu_cache:il1     4:128:4,L:R:f:N,A:2:32,4 # shader L1 instruction cache config  {<nsets>:<bsize>:<assoc>,<rep>:<wr>:<alloc>:<wr_alloc>,<mshr>:<N>:<merge>,<mq>} 
-gpgpu_cache:dl1     32:128:4,L:L:m:N,A:32:8,8 # per-shader L1 data cache config  {<nsets>:<bsize>:<assoc>,<rep>:<wr>:<alloc>:<wr_alloc>,<mshr>:<N>:<merge>,<mq> | none}
-gpgpu_cache:dl1PrefL1                 none # per-shader L1 data cache config  {<nsets>:<bsize>:<assoc>,<rep>:<wr>:<alloc>:<wr_alloc>,<mshr>:<N>:<merge>,<mq> | none}
-gpgpu_cache:dl1PreShared                 none # per-shader L1 data cache config  {<nsets>:<bsize>:<assoc>,<rep>:<wr>:<alloc>:<wr_alloc>,<mshr>:<N>:<merge>,<mq> | none}
-gmem_skip_L1D                          0 # global memory access skip L1D cache (implements -Xptxas -dlcm=cg, default=no skip)
-gpgpu_perfect_mem                      0 # enable perfect memory mode (no cache miss)
-n_regfile_gating_group                    4 # group of lanes that should be read/written together)
-gpgpu_clock_gated_reg_file                    0 # enable clock gated reg file for power calculations
-gpgpu_clock_gated_lanes                    0 # enable clock gated lanes for power calculations
-gpgpu_shader_registers                32768 # Number of registers per shader core. Limits number of concurrent CTAs. (default 8192)
-gpgpu_shader_cta                       8 # Maximum number of concurrent CTAs in shader (default 8)
-gpgpu_n_clusters                      15 # number of processing clusters
-gpgpu_n_cores_per_cluster                    1 # number of simd cores per cluster
-gpgpu_n_cluster_ejection_buffer_size                    8 # number of packets in ejection buffer
-gpgpu_n_ldst_response_buffer_size                    2 # number of response packets in ld/st unit ejection buffer
-gpgpu_shmem_size                   16384 # Size of shared memory per shader core (default 16kB)
-gpgpu_shmem_size                   49152 # Size of shared memory per shader core (default 16kB)
-gpgpu_shmem_size_PrefL1                16384 # Size of shared memory per shader core (default 16kB)
-gpgpu_shmem_size_PrefShared                16384 # Size of shared memory per shader core (default 16kB)
-gpgpu_shmem_num_banks                   32 # Number of banks in the shared memory in each shader core (default 16)
-gpgpu_shmem_limited_broadcast                    0 # Limit shared memory to do one broadcast per cycle (default on)
-gpgpu_shmem_warp_parts                    1 # Number of portions a warp is divided into for shared memory bank conflict check 
-gpgpu_warpdistro_shader                   -1 # Specify which shader core to collect the warp size distribution from
-gpgpu_warp_issue_shader                    0 # Specify which shader core to collect the warp issue distribution from
-gpgpu_local_mem_map                    1 # Mapping from local memory space address to simulated GPU physical address space (default = enabled)
-gpgpu_num_reg_banks                   16 # Number of register banks (default = 8)
-gpgpu_reg_bank_use_warp_id                    0 # Use warp ID in mapping registers to banks (default = off)
-gpgpu_operand_collector_num_units_sp                    6 # number of collector units (default = 4)
-gpgpu_operand_collector_num_units_sfu                    8 # number of collector units (default = 4)
-gpgpu_operand_collector_num_units_mem                    2 # number of collector units (default = 2)
-gpgpu_operand_collector_num_units_gen                    0 # number of collector units (default = 0)
-gpgpu_operand_collector_num_in_ports_sp                    2 # number of collector unit in ports (default = 1)
-gpgpu_operand_collector_num_in_ports_sfu                    1 # number of collector unit in ports (default = 1)
-gpgpu_operand_collector_num_in_ports_mem                    1 # number of collector unit in ports (default = 1)
-gpgpu_operand_collector_num_in_ports_gen                    0 # number of collector unit in ports (default = 0)
-gpgpu_operand_collector_num_out_ports_sp                    2 # number of collector unit in ports (default = 1)
-gpgpu_operand_collector_num_out_ports_sfu                    1 # number of collector unit in ports (default = 1)
-gpgpu_operand_collector_num_out_ports_mem                    1 # number of collector unit in ports (default = 1)
-gpgpu_operand_collector_num_out_ports_gen                    0 # number of collector unit in ports (default = 0)
-gpgpu_coalesce_arch                   13 # Coalescing arch (default = 13, anything else is off for now)
-gpgpu_num_sched_per_core                    2 # Number of warp schedulers per core
-gpgpu_max_insn_issue_per_warp                    1 # Max number of instructions that can be issued per warp in one cycle by scheduler
-gpgpu_simt_core_sim_order                    1 # Select the simulation order of cores in a cluster (0=Fix, 1=Round-Robin)
-gpgpu_pipeline_widths        2,1,1,2,1,1,2 # Pipeline widths ID_OC_SP,ID_OC_SFU,ID_OC_MEM,OC_EX_SP,OC_EX_SFU,OC_EX_MEM,EX_WB
-gpgpu_num_sp_units                     2 # Number of SP units (default=1)
-gpgpu_num_sfu_units                    1 # Number of SF units (default=1)
-gpgpu_num_mem_units                    1 # Number if ldst units (default=1) WARNING: not hooked up to anything
-gpgpu_scheduler                      gto # Scheduler configuration: < lrr | gto | two_level_active > If two_level_active:<num_active_warps>:<inner_prioritization>:<outer_prioritization>For complete list of prioritization values see shader.h enum scheduler_prioritization_typeDefault: gto
-gpgpu_dram_scheduler                    1 # 0 = fifo, 1 = FR-FCFS (defaul)
-gpgpu_dram_partition_queues              8:8:8:8 # i2$:$2d:d2$:$2i
-l2_ideal                               0 # Use a ideal L2 cache that always hit
-gpgpu_cache:dl2     64:128:8,L:B:m:W,A:32:4,4:0,32 # unified banked L2 data cache config  {<nsets>:<bsize>:<assoc>,<rep>:<wr>:<alloc>:<wr_alloc>,<mshr>:<N>:<merge>,<mq>}
-gpgpu_cache:dl2_texture_only                    0 # L2 cache used for texture only
-gpgpu_n_mem                            6 # number of memory modules (e.g. memory controllers) in gpu
-gpgpu_n_sub_partition_per_mchannel                    2 # number of memory subpartition in each memory module
-gpgpu_n_mem_per_ctrlr                    2 # number of memory chips per memory controller
-gpgpu_memlatency_stat                   14 # track and display latency statistics 0x2 enables MC, 0x4 enables queue logs
-gpgpu_frfcfs_dram_sched_queue_size                   16 # 0 = unlimited (default); # entries per chip
-gpgpu_dram_return_queue_size                  116 # 0 = unlimited (default); # entries per chip
-gpgpu_dram_buswidth                    4 # default = 4 bytes (8 bytes per cycle at DDR)
-gpgpu_dram_burst_length                    8 # Burst length of each DRAM request (default = 4 data bus cycle)
-dram_data_command_freq_ratio                    4 # Frequency ratio between DRAM data bus and command bus (default = 2 times, i.e. DDR)
-gpgpu_dram_timing_opt nbk=16:CCD=2:RRD=6:RCD=12:RAS=28:RP=12:RC=40: CL=12:WL=4:CDLR=5:WR=12:nbkgrp=4:CCDL=3:RTPL=2 # DRAM timing parameters = {nbk:tCCD:tRRD:tRCD:tRAS:tRP:tRC:CL:WL:tCDLR:tWR:nbkgrp:tCCDL:tRTPL}
-rop_latency                          120 # ROP queue latency (default 85)
-dram_latency                         100 # DRAM latency (default 30)
-gpgpu_mem_addr_mapping dramid@8;00000000.00000000.00000000.00000000.0000RRRR.RRRRRRRR.BBBCCCCB.CCSSSSSS # mapping memory address to dram model {dramid@<start bit>;<memory address map>}
-gpgpu_mem_addr_test                    0 # run sweep test to check address mapping for aliased address
-gpgpu_mem_address_mask                    1 # 0 = old addressing mask, 1 = new addressing mask, 2 = new add. mask + flipped bank sel and chip sel bits
-gpuwattch_xml_file         gpuwattch.xml # GPUWattch XML file
-power_simulation_enabled                    0 # Turn on power simulator (1=On, 0=Off)
-power_per_cycle_dump                    0 # Dump detailed power output each cycle
-power_trace_enabled                    0 # produce a file for the power trace (1=On, 0=Off)
-power_trace_zlevel                     6 # Compression level of the power trace output log (0=no comp, 9=highest)
-steady_power_levels_enabled                    0 # produce a file for the steady power levels (1=On, 0=Off)
-steady_state_definition                  8:4 # allowed deviation:number of samples
-gpgpu_max_cycle                        0 # terminates gpu simulation early (0 = no limit)
-gpgpu_max_insn                         0 # terminates gpu simulation early (0 = no limit)
-gpgpu_max_cta                          0 # terminates gpu simulation early (0 = no limit)
-gpgpu_runtime_stat                   500 # display runtime statistics such as dram utilization {<freq>:<flag>}
-liveness_message_freq                    1 # Minimum number of seconds between simulation liveness messages (0 = always print)
-gpgpu_flush_l1_cache                    0 # Flush L1 cache at the end of each kernel call
-gpgpu_flush_l2_cache                    0 # Flush L2 cache at the end of each kernel call
-gpgpu_deadlock_detect                    1 # Stop the simulation at deadlock (1=on (default), 0=off)
-gpgpu_ptx_instruction_classification                    0 # if enabled will classify ptx instruction types per kernel (Max 255 kernels now)
-gpgpu_ptx_sim_mode                     0 # Select between Performance (default) or Functional simulation (1)
-gpgpu_clock_domains 700.0:700.0:700.0:924.0 # Clock Domain Frequencies in MhZ {<Core Clock>:<ICNT Clock>:<L2 Clock>:<DRAM Clock>}
-gpgpu_max_concurrent_kernel                    8 # maximum kernels that can run concurrently on GPU
-gpgpu_cflog_interval                    0 # Interval between each snapshot in control flow logger
-visualizer_enabled                     0 # Turn on visualizer output (1=On, 0=Off)
-visualizer_outputfile                 NULL # Specifies the output log file for visualizer
-visualizer_zlevel                      6 # Compression level of the visualizer output log (0=no comp, 9=highest)
-trace_enabled                          0 # Turn on traces
-trace_components                    none # comma seperated list of traces to enable. Complete list found in trace_streams.tup. Default none
-trace_sampling_core                    0 # The core which is printed using CORE_DPRINTF. Default 0
-trace_sampling_memory_partition                   -1 # The memory partition which is printed using MEMPART_DPRINTF. Default -1 (i.e. all)
-enable_ptx_file_line_stats                    1 # Turn on PTX source line statistic profiling. (1 = On)
-ptx_line_stats_filename gpgpu_inst_stats.txt # Output file for PTX source line statistics.
-save_embedded_ptx                      0 # saves ptx files embedded in binary as <n>.ptx
-keep                                   0 # keep intermediate files created by GPGPU-Sim when interfacing with external programs
-gpgpu_ptx_save_converted_ptxplus                    0 # Saved converted ptxplus to a file
-ptx_opcode_latency_int         4,13,4,5,145 # Opcode latencies for integers <ADD,MAX,MUL,MAD,DIV>Default 1,1,19,25,145
-ptx_opcode_latency_fp          4,13,4,5,39 # Opcode latencies for single precision floating points <ADD,MAX,MUL,MAD,DIV>Default 1,1,1,1,30
-ptx_opcode_latency_dp         8,19,8,8,330 # Opcode latencies for double precision floating points <ADD,MAX,MUL,MAD,DIV>Default 8,8,8,8,335
-ptx_opcode_initiation_int            1,2,2,1,8 # Opcode initiation intervals for integers <ADD,MAX,MUL,MAD,DIV>Default 1,1,4,4,32
-ptx_opcode_initiation_fp            1,2,1,1,4 # Opcode initiation intervals for single precision floating points <ADD,MAX,MUL,MAD,DIV>Default 1,1,1,1,5
-ptx_opcode_initiation_dp         8,16,8,8,130 # Opcode initiation intervals for double precision floating points <ADD,MAX,MUL,MAD,DIV>Default 8,8,8,8,130
DRAM Timing Options:
nbk                                    16 # number of banks
CCD                                     2 # column to column delay
RRD                                     6 # minimal delay between activation of rows in different banks
RCD                                    12 # row to column delay
RAS                                    28 # time needed to activate row
RP                                     12 # time needed to precharge (deactivate) row
RC                                     40 # row cycle time
CDLR                                    5 # switching from write to read (changes tWTR)
WR                                     12 # last data-in to row precharge
CL                                     12 # CAS latency
WL                                      4 # Write latency
nbkgrp                                  4 # number of bank groups
CCDL                                    3 # column to column delay between accesses to different bank groups
RTPL                                    2 # read to precharge delay between accesses to different bank groups
Total number of memory sub partition = 12
addr_dec_mask[CHIP]  = 0000000000000000 	high:64 low:0
addr_dec_mask[BK]    = 000000000000e100 	high:16 low:8
addr_dec_mask[ROW]   = 000000000fff0000 	high:28 low:16
addr_dec_mask[COL]   = 0000000000001eff 	high:13 low:0
addr_dec_mask[BURST] = 000000000000003f 	high:6 low:0
sub_partition_id_mask = 0000000000000100
GPGPU-Sim uArch: clock freqs: 700000000.000000:700000000.000000:700000000.000000:924000000.000000
GPGPU-Sim uArch: clock periods: 0.00000000142857142857:0.00000000142857142857:0.00000000142857142857:0.00000000108225108225
*** Initializing Memory Statistics ***
GPGPU-Sim uArch: interconnect node map (shaderID+MemID to icntID)
GPGPU-Sim uArch: Memory nodes ID start from index: 15
GPGPU-Sim uArch:    0   1   2   3   4
GPGPU-Sim uArch:    5   6   7   8   9
GPGPU-Sim uArch:   10  11  12  13  14
GPGPU-Sim uArch:   15  16  17  18  19
GPGPU-Sim uArch:   20  21  22  23  24
GPGPU-Sim uArch:   25  26
GPGPU-Sim uArch: interconnect node reverse map (icntID to shaderID+MemID)
GPGPU-Sim uArch: Memory nodes start from ID: 15
GPGPU-Sim uArch:    0   1   2   3   4
GPGPU-Sim uArch:    5   6   7   8   9
GPGPU-Sim uArch:   10  11  12  13  14
GPGPU-Sim uArch:   15  16  17  18  19
GPGPU-Sim uArch:   20  21  22  23  24
GPGPU-Sim uArch:   25  26
35e4989e7e2383a1c0ff536b7ce586fc  /afs/tu-berlin.de/home/t/tobias.fuchs/irb-ubuntu/Dokumente/new4/MCS1415/CUDA/assignment1/gpumcs/gpu_out
GPGPU-Sim uArch: performance model initialization complete.
GPGPU-Sim PTX: __cudaRegisterFatBinary, fat_cubin_handle = 1, filename=gpu_julia.cu
self exe links to: /afs/tu-berlin.de/home/t/tobias.fuchs/irb-ubuntu/Dokumente/new4/MCS1415/CUDA/assignment1/gpumcs/gpu_out
Running md5sum using "md5sum /afs/tu-berlin.de/home/t/tobias.fuchs/irb-ubuntu/Dokumente/new4/MCS1415/CUDA/assignment1/gpumcs/gpu_out "
Running cuobjdump using "$CUDA_INSTALL_PATH/bin/cuobjdump -ptx -elf -sass /afs/tu-berlin.de/home/t/tobias.fuchs/irb-ubuntu/Dokumente/new4/MCS1415/CUDA/assignment1/gpumcs/gpu_out > _cuobjdump_complete_output_6UFDh1"
Parsing file _cuobjdump_complete_output_6UFDh1
######### cuobjdump parser ########
## Adding new section ELF
Adding arch: sm_10
Adding identifier: gpu_julia.cu
## Adding new section PTX
Adding ptx filename: _cuobjdump_1.ptx
Adding arch: sm_10
Adding identifier: gpu_julia.cu
Done parsing!!!
GPGPU-Sim PTX: __cudaRegisterFunction _Z12calc_fractaliiffPh : hostFun 0x0x401073, fat_cubin_handle = 1
GPGPU-Sim PTX: instruction assembly for function '_Z12calc_fractaliiffPh'...   done.
GPGPU-Sim PTX: finding reconvergence points for '_Z12calc_fractaliiffPh'...
GPGPU-Sim PTX: Finding dominators for '_Z12calc_fractaliiffPh'...
GPGPU-Sim PTX: Finding immediate dominators for '_Z12calc_fractaliiffPh'...
GPGPU-Sim PTX: Finding postdominators for '_Z12calc_fractaliiffPh'...
GPGPU-Sim PTX: Finding immediate postdominators for '_Z12calc_fractaliiffPh'...
GPGPU-Sim PTX: pre-decoding instructions for '_Z12calc_fractaliiffPh'...
GPGPU-Sim PTX: reconvergence points for _Z12calc_fractaliiffPh...
GPGPU-Sim PTX:  1 (potential) branch divergence @  PC=0x100 (_1.ptx:101) @%p1 bra $Lt_0_258;
GPGPU-Sim PTX:    immediate post dominator      @  PC=0x158 (_1.ptx:117) ld.param.s32 %r4, [__cudaparm__Z12calc_fractaliiffPh_width];
GPGPU-Sim PTX:  2 (potential) branch divergence @  PC=0x150 (_1.ptx:114) @%p2 bra $Lt_0_2306;
GPGPU-Sim PTX:    immediate post dominator      @  PC=0x158 (_1.ptx:117) ld.param.s32 %r4, [__cudaparm__Z12calc_fractaliiffPh_width];
GPGPU-Sim PTX: ... end of reconvergence points for _Z12calc_fractaliiffPh
GPGPU-Sim PTX: ... done pre-decoding instructions for '_Z12calc_fractaliiffPh'.
GPGPU-Sim PTX: finished parsing EMBEDDED .ptx file _1.ptx
Adding _cuobjdump_1.ptx with cubin handle 1
GPGPU-Sim PTX: extracting embedded .ptx to temporary file "_ptx_MKMUhB"
Running: cat _ptx_MKMUhB | sed 's/.version 1.5/.version 1.4/' | sed 's/, texmode_independent//' | sed 's/\(\.extern \.const\[1\] .b8 \w\+\)\[\]/\1\[1\]/' | sed 's/const\[.\]/const\[0\]/g' > _ptx2_myAKib
GPGPU-Sim PTX: generating ptxinfo using "$CUDA_INSTALL_PATH/bin/ptxas --gpu-name=sm_20 -v _ptx2_myAKib --output-file  /dev/null 2> _ptx_MKMUhBinfo"
GPGPU-Sim PTX: Kernel '_Z12calc_fractaliiffPh' : regs=9, lmem=0, smem=0, cmem=60
GPGPU-Sim PTX: removing ptxinfo using "rm -f _ptx_MKMUhB _ptx2_myAKib _ptx_MKMUhBinfo"
GPGPU-Sim PTX: loading globals with explicit initializers... 
GPGPU-Sim PTX: finished loading globals (0 bytes total).
GPGPU-Sim PTX: loading constants with explicit initializers...  done.

GPGPU-Sim PTX: cudaLaunch for 0x0x401073 (mode=performance simulation) on stream 0
GPGPU-Sim PTX: pushing kernel '_Z12calc_fractaliiffPh' to stream 0, gridDim= (4,256,1) blockDim = (64,1,1) 
kernel '_Z12calc_fractaliiffPh' transfer to GPU hardware scheduler
GPGPU-Sim uArch: Shader 1 bind to kernel 1 '_Z12calc_fractaliiffPh'
GPGPU-Sim uArch: CTA/core = 8, limited by: cta_limit
GPGPU-Sim uArch: core:  1, cta: 0 initialized @(1,0)
GPGPU-Sim uArch: Shader 2 bind to kernel 1 '_Z12calc_fractaliiffPh'
GPGPU-Sim uArch: core:  2, cta: 0 initialized @(1,0)
GPGPU-Sim uArch: Shader 3 bind to kernel 1 '_Z12calc_fractaliiffPh'
GPGPU-Sim uArch: core:  3, cta: 0 initialized @(1,0)
GPGPU-Sim uArch: Shader 4 bind to kernel 1 '_Z12calc_fractaliiffPh'
GPGPU-Sim uArch: core:  4, cta: 0 initialized @(1,0)
GPGPU-Sim uArch: Shader 5 bind to kernel 1 '_Z12calc_fractaliiffPh'
GPGPU-Sim uArch: core:  5, cta: 0 initialized @(1,0)
GPGPU-Sim uArch: Shader 6 bind to kernel 1 '_Z12calc_fractaliiffPh'
GPGPU-Sim uArch: core:  6, cta: 0 initialized @(1,0)
GPGPU-Sim uArch: Shader 7 bind to kernel 1 '_Z12calc_fractaliiffPh'
GPGPU-Sim uArch: core:  7, cta: 0 initialized @(1,0)
GPGPU-Sim uArch: Shader 8 bind to kernel 1 '_Z12calc_fractaliiffPh'
GPGPU-Sim uArch: core:  8, cta: 0 initialized @(1,0)
GPGPU-Sim uArch: Shader 9 bind to kernel 1 '_Z12calc_fractaliiffPh'
GPGPU-Sim uArch: core:  9, cta: 0 initialized @(1,0)
GPGPU-Sim uArch: Shader 10 bind to kernel 1 '_Z12calc_fractaliiffPh'
GPGPU-Sim uArch: core: 10, cta: 0 initialized @(1,0)
GPGPU-Sim uArch: Shader 11 bind to kernel 1 '_Z12calc_fractaliiffPh'
GPGPU-Sim uArch: core: 11, cta: 0 initialized @(1,0)
GPGPU-Sim uArch: Shader 12 bind to kernel 1 '_Z12calc_fractaliiffPh'
GPGPU-Sim uArch: core: 12, cta: 0 initialized @(1,0)
GPGPU-Sim uArch: Shader 13 bind to kernel 1 '_Z12calc_fractaliiffPh'
GPGPU-Sim uArch: core: 13, cta: 0 initialized @(1,0)
GPGPU-Sim uArch: Shader 14 bind to kernel 1 '_Z12calc_fractaliiffPh'
GPGPU-Sim uArch: core: 14, cta: 0 initialized @(1,0)
GPGPU-Sim uArch: Shader 0 bind to kernel 1 '_Z12calc_fractaliiffPh'
GPGPU-Sim uArch: core:  0, cta: 0 initialized @(1,0)
GPGPU-Sim uArch: core:  1, cta: 1 initialized @(2,0)
GPGPU-Sim uArch: core:  2, cta: 1 initialized @(2,0)
GPGPU-Sim uArch: core:  3, cta: 1 initialized @(2,0)
GPGPU-Sim uArch: core:  4, cta: 1 initialized @(2,0)
GPGPU-Sim uArch: core:  5, cta: 1 initialized @(2,0)
GPGPU-Sim uArch: core:  6, cta: 1 initialized @(2,0)
GPGPU-Sim uArch: core:  7, cta: 1 initialized @(2,0)
GPGPU-Sim uArch: core:  8, cta: 1 initialized @(2,0)
GPGPU-Sim uArch: core:  9, cta: 1 initialized @(2,0)
GPGPU-Sim uArch: core: 10, cta: 1 initialized @(2,0)
GPGPU-Sim uArch: core: 11, cta: 1 initialized @(2,0)
GPGPU-Sim uArch: core: 12, cta: 1 initialized @(2,0)
GPGPU-Sim uArch: core: 13, cta: 1 initialized @(2,0)
GPGPU-Sim uArch: core: 14, cta: 1 initialized @(2,0)
GPGPU-Sim uArch: core:  0, cta: 1 initialized @(2,0)
GPGPU-Sim uArch: core:  1, cta: 2 initialized @(3,0)
GPGPU-Sim uArch: core:  2, cta: 2 initialized @(3,0)
GPGPU-Sim uArch: core:  3, cta: 2 initialized @(3,0)
GPGPU-Sim uArch: core:  4, cta: 2 initialized @(3,0)
GPGPU-Sim uArch: core:  5, cta: 2 initialized @(3,0)
GPGPU-Sim uArch: core:  6, cta: 2 initialized @(3,0)
GPGPU-Sim uArch: core:  7, cta: 2 initialized @(3,0)
GPGPU-Sim uArch: core:  8, cta: 2 initialized @(3,0)
GPGPU-Sim uArch: core:  9, cta: 2 initialized @(3,0)
GPGPU-Sim uArch: core: 10, cta: 2 initialized @(3,0)
GPGPU-Sim uArch: core: 11, cta: 2 initialized @(3,0)
GPGPU-Sim uArch: core: 12, cta: 2 initialized @(3,0)
GPGPU-Sim uArch: core: 13, cta: 2 initialized @(3,0)
GPGPU-Sim uArch: core: 14, cta: 2 initialized @(3,0)
GPGPU-Sim uArch: core:  0, cta: 2 initialized @(3,0)
GPGPU-Sim uArch: core:  1, cta: 3 initialized @(4,0)
GPGPU-Sim uArch: core:  2, cta: 3 initialized @(4,0)
GPGPU-Sim uArch: core:  3, cta: 3 initialized @(4,0)
GPGPU-Sim uArch: core:  4, cta: 3 initialized @(4,0)
GPGPU-Sim uArch: core:  5, cta: 3 initialized @(4,0)
GPGPU-Sim uArch: core:  6, cta: 3 initialized @(4,0)
GPGPU-Sim uArch: core:  7, cta: 3 initialized @(4,0)
GPGPU-Sim uArch: core:  8, cta: 3 initialized @(4,0)
GPGPU-Sim uArch: core:  9, cta: 3 initialized @(4,0)
GPGPU-Sim uArch: core: 10, cta: 3 initialized @(4,0)
GPGPU-Sim uArch: core: 11, cta: 3 initialized @(4,0)
GPGPU-Sim uArch: core: 12, cta: 3 initialized @(4,0)
GPGPU-Sim uArch: core: 13, cta: 3 initialized @(4,0)
GPGPU-Sim uArch: core: 14, cta: 3 initialized @(4,0)
GPGPU-Sim uArch: core:  0, cta: 3 initialized @(4,0)
GPGPU-Sim uArch: core:  1, cta: 4 initialized @(5,0)
GPGPU-Sim uArch: core:  2, cta: 4 initialized @(5,0)
GPGPU-Sim uArch: core:  3, cta: 4 initialized @(5,0)
GPGPU-Sim uArch: core:  4, cta: 4 initialized @(5,0)
GPGPU-Sim uArch: core:  5, cta: 4 initialized @(5,0)
GPGPU-Sim uArch: core:  6, cta: 4 initialized @(5,0)
GPGPU-Sim uArch: core:  7, cta: 4 initialized @(5,0)
GPGPU-Sim uArch: core:  8, cta: 4 initialized @(5,0)
GPGPU-Sim uArch: core:  9, cta: 4 initialized @(5,0)
GPGPU-Sim uArch: core: 10, cta: 4 initialized @(5,0)
GPGPU-Sim uArch: core: 11, cta: 4 initialized @(5,0)
GPGPU-Sim uArch: core: 12, cta: 4 initialized @(5,0)
GPGPU-Sim uArch: core: 13, cta: 4 initialized @(5,0)
GPGPU-Sim uArch: core: 14, cta: 4 initialized @(5,0)
GPGPU-Sim uArch: core:  0, cta: 4 initialized @(5,0)
GPGPU-Sim uArch: core:  1, cta: 5 initialized @(6,0)
GPGPU-Sim uArch: core:  2, cta: 5 initialized @(6,0)
GPGPU-Sim uArch: core:  3, cta: 5 initialized @(6,0)
GPGPU-Sim uArch: core:  4, cta: 5 initialized @(6,0)
GPGPU-Sim uArch: core:  5, cta: 5 initialized @(6,0)
GPGPU-Sim uArch: core:  6, cta: 5 initialized @(6,0)
GPGPU-Sim uArch: core:  7, cta: 5 initialized @(6,0)
GPGPU-Sim uArch: core:  8, cta: 5 initialized @(6,0)
GPGPU-Sim uArch: core:  9, cta: 5 initialized @(6,0)
GPGPU-Sim uArch: core: 10, cta: 5 initialized @(6,0)
GPGPU-Sim uArch: core: 11, cta: 5 initialized @(6,0)
GPGPU-Sim uArch: core: 12, cta: 5 initialized @(6,0)
GPGPU-Sim uArch: core: 13, cta: 5 initialized @(6,0)
GPGPU-Sim uArch: core: 14, cta: 5 initialized @(6,0)
GPGPU-Sim uArch: core:  0, cta: 5 initialized @(6,0)
GPGPU-Sim uArch: core:  1, cta: 6 initialized @(7,0)
GPGPU-Sim uArch: core:  2, cta: 6 initialized @(7,0)
GPGPU-Sim uArch: core:  3, cta: 6 initialized @(7,0)
GPGPU-Sim uArch: core:  4, cta: 6 initialized @(7,0)
GPGPU-Sim uArch: core:  5, cta: 6 initialized @(7,0)
GPGPU-Sim uArch: core:  6, cta: 6 initialized @(7,0)
GPGPU-Sim uArch: core:  7, cta: 6 initialized @(7,0)
GPGPU-Sim uArch: core:  8, cta: 6 initialized @(7,0)
GPGPU-Sim uArch: core:  9, cta: 6 initialized @(7,0)
GPGPU-Sim uArch: core: 10, cta: 6 initialized @(7,0)
GPGPU-Sim uArch: core: 11, cta: 6 initialized @(7,0)
GPGPU-Sim uArch: core: 12, cta: 6 initialized @(7,0)
GPGPU-Sim uArch: core: 13, cta: 6 initialized @(7,0)
GPGPU-Sim uArch: core: 14, cta: 6 initialized @(7,0)
GPGPU-Sim uArch: core:  0, cta: 6 initialized @(7,0)
GPGPU-Sim uArch: core:  1, cta: 7 initialized @(8,0)
GPGPU-Sim uArch: core:  2, cta: 7 initialized @(8,0)
GPGPU-Sim uArch: core:  3, cta: 7 initialized @(8,0)
GPGPU-Sim uArch: core:  4, cta: 7 initialized @(8,0)
GPGPU-Sim uArch: core:  5, cta: 7 initialized @(8,0)
GPGPU-Sim uArch: core:  6, cta: 7 initialized @(8,0)
GPGPU-Sim uArch: core:  7, cta: 7 initialized @(8,0)
GPGPU-Sim uArch: core:  8, cta: 7 initialized @(8,0)
GPGPU-Sim uArch: core:  9, cta: 7 initialized @(8,0)
GPGPU-Sim uArch: core: 10, cta: 7 initialized @(8,0)
GPGPU-Sim uArch: core: 11, cta: 7 initialized @(8,0)
GPGPU-Sim uArch: core: 12, cta: 7 initialized @(8,0)
GPGPU-Sim uArch: core: 13, cta: 7 initialized @(8,0)
GPGPU-Sim uArch: core: 14, cta: 7 initialized @(8,0)
GPGPU-Sim uArch: core:  0, cta: 7 initialized @(8,0)
GPGPU-Sim uArch: cycles simulated: 500  inst.: 61440 (ipc=122.9) sim_rate=61440 (inst/sec) elapsed = 0:0:00:01 / Fri Jan 16 05:14:10 2015
GPGPU-Sim PTX: 100000 instructions simulated : ctaid=(2,19,0) tid=(63,0,0)
GPGPU-Sim PTX: 200000 instructions simulated : ctaid=(0,0,0) tid=(31,0,0)
GPGPU-Sim PTX: 300000 instructions simulated : ctaid=(1,24,0) tid=(31,0,0)
GPGPU-Sim PTX: 400000 instructions simulated : ctaid=(2,3,0) tid=(31,0,0)
GPGPU-Sim PTX: 500000 instructions simulated : ctaid=(2,17,0) tid=(11,0,0)
GPGPU-Sim PTX: 600000 instructions simulated : ctaid=(1,10,0) tid=(58,0,0)
GPGPU-Sim PTX: 700000 instructions simulated : ctaid=(2,22,0) tid=(0,0,0)
GPGPU-Sim uArch: cycles simulated: 2000  inst.: 719438 (ipc=359.7) sim_rate=359719 (inst/sec) elapsed = 0:0:00:02 / Fri Jan 16 05:14:12 2015
GPGPU-Sim PTX: 800000 instructions simulated : ctaid=(0,14,0) tid=(51,0,0)
GPGPU-Sim PTX: 900000 instructions simulated : ctaid=(0,22,0) tid=(40,0,0)
GPGPU-Sim PTX: 1000000 instructions simulated : ctaid=(1,5,0) tid=(44,0,0)
GPGPU-Sim PTX: 1100000 instructions simulated : ctaid=(1,0,0) tid=(50,0,0)
GPGPU-Sim uArch: Shader 1 finished CTA #0 (2563,0), 7 CTAs running
GPGPU-Sim uArch: core:  1, cta: 0 initialized @(2564,0)
GPGPU-Sim PTX: 1200000 instructions simulated : ctaid=(3,23,0) tid=(8,0,0)
GPGPU-Sim uArch: Shader 5 finished CTA #0 (2579,0), 7 CTAs running
GPGPU-Sim uArch: core:  5, cta: 0 initialized @(2580,0)
GPGPU-Sim uArch: Shader 6 finished CTA #1 (2602,0), 7 CTAs running
GPGPU-Sim uArch: core:  6, cta: 1 initialized @(2603,0)
GPGPU-Sim uArch: Shader 9 finished CTA #0 (2604,0), 7 CTAs running
GPGPU-Sim uArch: core:  9, cta: 0 initialized @(2605,0)
GPGPU-Sim uArch: Shader 2 finished CTA #1 (2661,0), 7 CTAs running
GPGPU-Sim uArch: core:  2, cta: 1 initialized @(2662,0)
GPGPU-Sim uArch: Shader 13 finished CTA #0 (2699,0), 7 CTAs running
GPGPU-Sim uArch: core: 13, cta: 0 initialized @(2700,0)
GPGPU-Sim PTX: 1300000 instructions simulated : ctaid=(2,19,0) tid=(39,0,0)
GPGPU-Sim uArch: Shader 10 finished CTA #1 (2805,0), 7 CTAs running
GPGPU-Sim uArch: core: 10, cta: 1 initialized @(2806,0)
GPGPU-Sim PTX: 1400000 instructions simulated : ctaid=(2,28,0) tid=(1,0,0)
GPGPU-Sim PTX: 1500000 instructions simulated : ctaid=(2,25,0) tid=(58,0,0)
GPGPU-Sim uArch: cycles simulated: 3000  inst.: 1437698 (ipc=479.2) sim_rate=479232 (inst/sec) elapsed = 0:0:00:03 / Fri Jan 16 05:14:13 2015
GPGPU-Sim PTX: 1600000 instructions simulated : ctaid=(2,14,0) tid=(37,0,0)
GPGPU-Sim PTX: 1700000 instructions simulated : ctaid=(1,4,0) tid=(36,0,0)
GPGPU-Sim PTX: 1800000 instructions simulated : ctaid=(1,24,0) tid=(8,0,0)
GPGPU-Sim PTX: 1900000 instructions simulated : ctaid=(2,3,0) tid=(18,0,0)
GPGPU-Sim PTX: 2000000 instructions simulated : ctaid=(0,13,0) tid=(38,0,0)
GPGPU-Sim uArch: Shader 4 finished CTA #0 (3694,0), 7 CTAs running
GPGPU-Sim uArch: core:  4, cta: 0 initialized @(3695,0)
GPGPU-Sim uArch: Shader 8 finished CTA #0 (3707,0), 7 CTAs running
GPGPU-Sim uArch: core:  8, cta: 0 initialized @(3708,0)
GPGPU-Sim uArch: Shader 1 finished CTA #1 (3729,0), 7 CTAs running
GPGPU-Sim uArch: core:  1, cta: 1 initialized @(3730,0)
GPGPU-Sim uArch: Shader 5 finished CTA #1 (3774,0), 7 CTAs running
GPGPU-Sim uArch: core:  5, cta: 1 initialized @(3775,0)
GPGPU-Sim uArch: Shader 12 finished CTA #0 (3785,0), 7 CTAs running
GPGPU-Sim uArch: core: 12, cta: 0 initialized @(3786,0)
GPGPU-Sim uArch: Shader 6 finished CTA #2 (3802,0), 7 CTAs running
GPGPU-Sim uArch: core:  6, cta: 2 initialized @(3803,0)
GPGPU-Sim uArch: Shader 9 finished CTA #1 (3809,0), 7 CTAs running
GPGPU-Sim uArch: Shader 10 finished CTA #2 (3809,0), 7 CTAs running
GPGPU-Sim uArch: core:  9, cta: 1 initialized @(3810,0)
GPGPU-Sim uArch: core: 10, cta: 2 initialized @(3810,0)
GPGPU-Sim PTX: 2100000 instructions simulated : ctaid=(1,5,0) tid=(14,0,0)
GPGPU-Sim uArch: Shader 2 finished CTA #2 (3873,0), 7 CTAs running
GPGPU-Sim uArch: core:  2, cta: 2 initialized @(3874,0)
GPGPU-Sim uArch: Shader 13 finished CTA #1 (3882,0), 7 CTAs running
GPGPU-Sim uArch: core: 13, cta: 1 initialized @(3883,0)
GPGPU-Sim uArch: Shader 3 finished CTA #3 (3937,0), 7 CTAs running
GPGPU-Sim uArch: core:  3, cta: 3 initialized @(3938,0)
GPGPU-Sim uArch: Shader 14 finished CTA #2 (3947,0), 7 CTAs running
GPGPU-Sim uArch: core: 14, cta: 2 initialized @(3948,0)
GPGPU-Sim PTX: 2200000 instructions simulated : ctaid=(1,11,0) tid=(51,0,0)
GPGPU-Sim uArch: cycles simulated: 4000  inst.: 2084811 (ipc=521.2) sim_rate=521202 (inst/sec) elapsed = 0:0:00:04 / Fri Jan 16 05:14:14 2015
GPGPU-Sim uArch: Shader 0 finished CTA #3 (4102,0), 7 CTAs running
GPGPU-Sim uArch: core:  0, cta: 3 initialized @(4103,0)
GPGPU-Sim uArch: Shader 7 finished CTA #3 (4110,0), 7 CTAs running
GPGPU-Sim uArch: core:  7, cta: 3 initialized @(4111,0)
GPGPU-Sim PTX: 2300000 instructions simulated : ctaid=(1,27,0) tid=(42,0,0)
GPGPU-Sim uArch: Shader 11 finished CTA #3 (4156,0), 7 CTAs running
GPGPU-Sim uArch: core: 11, cta: 3 initialized @(4157,0)
GPGPU-Sim uArch: Shader 4 finished CTA #4 (4253,0), 7 CTAs running
GPGPU-Sim uArch: core:  4, cta: 4 initialized @(4254,0)
GPGPU-Sim PTX: 2400000 instructions simulated : ctaid=(1,35,0) tid=(10,0,0)
GPGPU-Sim uArch: Shader 12 finished CTA #4 (4311,0), 7 CTAs running
GPGPU-Sim uArch: core: 12, cta: 4 initialized @(4312,0)
GPGPU-Sim uArch: Shader 8 finished CTA #4 (4328,0), 7 CTAs running
GPGPU-Sim uArch: core:  8, cta: 4 initialized @(4329,0)
GPGPU-Sim uArch: Shader 1 finished CTA #5 (4463,0), 7 CTAs running
GPGPU-Sim uArch: core:  1, cta: 5 initialized @(4464,0)
GPGPU-Sim PTX: 2500000 instructions simulated : ctaid=(1,17,0) tid=(3,0,0)
GPGPU-Sim uArch: Shader 5 finished CTA #5 (4485,0), 7 CTAs running
GPGPU-Sim uArch: core:  5, cta: 5 initialized @(4486,0)
GPGPU-Sim PTX: 2600000 instructions simulated : ctaid=(0,26,0) tid=(24,0,0)
GPGPU-Sim uArch: Shader 9 finished CTA #5 (4657,0), 7 CTAs running
GPGPU-Sim uArch: core:  9, cta: 5 initialized @(4658,0)
GPGPU-Sim uArch: Shader 13 finished CTA #5 (4708,0), 7 CTAs running
GPGPU-Sim uArch: core: 13, cta: 5 initialized @(4709,0)
GPGPU-Sim PTX: 2700000 instructions simulated : ctaid=(1,20,0) tid=(32,0,0)
GPGPU-Sim uArch: cycles simulated: 5000  inst.: 2638087 (ipc=527.6) sim_rate=527617 (inst/sec) elapsed = 0:0:00:05 / Fri Jan 16 05:14:15 2015
GPGPU-Sim PTX: 2800000 instructions simulated : ctaid=(1,14,0) tid=(3,0,0)
GPGPU-Sim uArch: Shader 2 finished CTA #6 (5080,0), 7 CTAs running
GPGPU-Sim uArch: core:  2, cta: 6 initialized @(5081,0)
GPGPU-Sim uArch: Shader 6 finished CTA #6 (5125,0), 7 CTAs running
GPGPU-Sim uArch: core:  6, cta: 6 initialized @(5126,0)
GPGPU-Sim uArch: Shader 10 finished CTA #6 (5148,0), 7 CTAs running
GPGPU-Sim uArch: core: 10, cta: 6 initialized @(5149,0)
GPGPU-Sim PTX: 2900000 instructions simulated : ctaid=(1,30,0) tid=(61,0,0)
GPGPU-Sim PTX: 3000000 instructions simulated : ctaid=(3,26,0) tid=(57,0,0)
GPGPU-Sim uArch: Shader 7 finished CTA #0 (5380,0), 7 CTAs running
GPGPU-Sim uArch: core:  7, cta: 0 initialized @(5381,0)
GPGPU-Sim uArch: Shader 11 finished CTA #0 (5398,0), 7 CTAs running
GPGPU-Sim uArch: core: 11, cta: 0 initialized @(5399,0)
GPGPU-Sim uArch: Shader 14 finished CTA #6 (5446,0), 7 CTAs running
GPGPU-Sim uArch: core: 14, cta: 6 initialized @(5447,0)
GPGPU-Sim uArch: Shader 3 finished CTA #0 (5459,0), 7 CTAs running
GPGPU-Sim uArch: core:  3, cta: 0 initialized @(5460,0)
GPGPU-Sim PTX: 3100000 instructions simulated : ctaid=(0,28,0) tid=(63,0,0)
GPGPU-Sim uArch: Shader 0 finished CTA #0 (5593,0), 7 CTAs running
GPGPU-Sim uArch: core:  0, cta: 0 initialized @(5594,0)
GPGPU-Sim PTX: 3200000 instructions simulated : ctaid=(0,36,0) tid=(38,0,0)
GPGPU-Sim uArch: Shader 3 finished CTA #7 (5898,0), 7 CTAs running
GPGPU-Sim uArch: core:  3, cta: 7 initialized @(5899,0)
GPGPU-Sim PTX: 3300000 instructions simulated : ctaid=(1,31,0) tid=(20,0,0)
GPGPU-Sim uArch: cycles simulated: 6000  inst.: 3130829 (ipc=521.8) sim_rate=521804 (inst/sec) elapsed = 0:0:00:06 / Fri Jan 16 05:14:16 2015
GPGPU-Sim uArch: Shader 7 finished CTA #7 (6012,0), 7 CTAs running
GPGPU-Sim uArch: core:  7, cta: 7 initialized @(6013,0)
GPGPU-Sim uArch: Shader 0 finished CTA #7 (6081,0), 7 CTAs running
GPGPU-Sim uArch: core:  0, cta: 7 initialized @(6082,0)
GPGPU-Sim uArch: Shader 11 finished CTA #7 (6104,0), 7 CTAs running
GPGPU-Sim uArch: core: 11, cta: 7 initialized @(6105,0)
GPGPU-Sim PTX: 3400000 instructions simulated : ctaid=(2,10,0) tid=(5,0,0)
GPGPU-Sim PTX: 3500000 instructions simulated : ctaid=(2,27,0) tid=(10,0,0)
GPGPU-Sim uArch: Shader 9 finished CTA #0 (6526,0), 7 CTAs running
GPGPU-Sim uArch: core:  9, cta: 0 initialized @(6527,0)
GPGPU-Sim PTX: 3600000 instructions simulated : ctaid=(1,30,0) tid=(46,0,0)
GPGPU-Sim PTX: 3700000 instructions simulated : ctaid=(0,39,0) tid=(63,0,0)
GPGPU-Sim uArch: Shader 12 finished CTA #0 (6973,0), 7 CTAs running
GPGPU-Sim uArch: core: 12, cta: 0 initialized @(6974,0)
GPGPU-Sim uArch: cycles simulated: 7000  inst.: 3559456 (ipc=508.5) sim_rate=508493 (inst/sec) elapsed = 0:0:00:07 / Fri Jan 16 05:14:17 2015
GPGPU-Sim PTX: 3800000 instructions simulated : ctaid=(0,34,0) tid=(38,0,0)
GPGPU-Sim uArch: Shader 4 finished CTA #0 (7085,0), 7 CTAs running
GPGPU-Sim uArch: core:  4, cta: 0 initialized @(7086,0)
GPGPU-Sim PTX: 3900000 instructions simulated : ctaid=(2,12,0) tid=(1,0,0)
GPGPU-Sim PTX: 4000000 instructions simulated : ctaid=(1,40,0) tid=(6,0,0)
GPGPU-Sim uArch: Shader 12 finished CTA #4 (7634,0), 7 CTAs running
GPGPU-Sim uArch: core: 12, cta: 4 initialized @(7635,0)
GPGPU-Sim uArch: Shader 0 finished CTA #3 (7653,0), 7 CTAs running
GPGPU-Sim uArch: core:  0, cta: 3 initialized @(7654,0)
GPGPU-Sim PTX: 4100000 instructions simulated : ctaid=(1,12,0) tid=(37,0,0)
GPGPU-Sim uArch: Shader 2 finished CTA #2 (7892,0), 7 CTAs running
GPGPU-Sim uArch: core:  2, cta: 2 initialized @(7893,0)
GPGPU-Sim uArch: Shader 9 finished CTA #5 (7996,0), 7 CTAs running
GPGPU-Sim uArch: core:  9, cta: 5 initialized @(7997,0)
GPGPU-Sim uArch: cycles simulated: 8000  inst.: 3910236 (ipc=488.8) sim_rate=488779 (inst/sec) elapsed = 0:0:00:08 / Fri Jan 16 05:14:18 2015
GPGPU-Sim PTX: 4200000 instructions simulated : ctaid=(0,37,0) tid=(45,0,0)
GPGPU-Sim PTX: 4300000 instructions simulated : ctaid=(0,31,0) tid=(31,0,0)
GPGPU-Sim PTX: 4400000 instructions simulated : ctaid=(0,28,0) tid=(18,0,0)
GPGPU-Sim PTX: 4500000 instructions simulated : ctaid=(0,31,0) tid=(34,0,0)
GPGPU-Sim uArch: Shader 3 finished CTA #0 (9465,0), 7 CTAs running
GPGPU-Sim uArch: core:  3, cta: 0 initialized @(9466,0)
GPGPU-Sim uArch: cycles simulated: 9500  inst.: 4291570 (ipc=451.7) sim_rate=476841 (inst/sec) elapsed = 0:0:00:09 / Fri Jan 16 05:14:19 2015
GPGPU-Sim PTX: 4600000 instructions simulated : ctaid=(0,32,0) tid=(19,0,0)
GPGPU-Sim PTX: 4700000 instructions simulated : ctaid=(3,41,0) tid=(39,0,0)
GPGPU-Sim uArch: Shader 0 finished CTA #7 (10480,0), 7 CTAs running
GPGPU-Sim uArch: core:  0, cta: 7 initialized @(10481,0)
GPGPU-Sim uArch: Shader 1 finished CTA #6 (10487,0), 7 CTAs running
GPGPU-Sim uArch: core:  1, cta: 6 initialized @(10488,0)
GPGPU-Sim uArch: Shader 11 finished CTA #4 (10545,0), 7 CTAs running
GPGPU-Sim uArch: core: 11, cta: 4 initialized @(10546,0)
GPGPU-Sim PTX: 4800000 instructions simulated : ctaid=(0,41,0) tid=(19,0,0)
GPGPU-Sim uArch: cycles simulated: 11000  inst.: 4549150 (ipc=413.6) sim_rate=454915 (inst/sec) elapsed = 0:0:00:10 / Fri Jan 16 05:14:20 2015
GPGPU-Sim uArch: Shader 4 finished CTA #0 (11270,0), 7 CTAs running
GPGPU-Sim uArch: core:  4, cta: 0 initialized @(11271,0)
GPGPU-Sim uArch: Shader 4 finished CTA #1 (11386,0), 7 CTAs running
GPGPU-Sim uArch: core:  4, cta: 1 initialized @(11387,0)
GPGPU-Sim uArch: Shader 9 finished CTA #5 (11467,0), 7 CTAs running
GPGPU-Sim uArch: core:  9, cta: 5 initialized @(11468,0)
GPGPU-Sim PTX: 4900000 instructions simulated : ctaid=(0,35,0) tid=(19,0,0)
GPGPU-Sim uArch: Shader 13 finished CTA #3 (11671,0), 7 CTAs running
GPGPU-Sim uArch: core: 13, cta: 3 initialized @(11672,0)
GPGPU-Sim PTX: 5000000 instructions simulated : ctaid=(0,42,0) tid=(56,0,0)
GPGPU-Sim uArch: Shader 12 finished CTA #3 (12293,0), 7 CTAs running
GPGPU-Sim uArch: core: 12, cta: 3 initialized @(12294,0)
GPGPU-Sim uArch: Shader 5 finished CTA #1 (12499,0), 7 CTAs running
GPGPU-Sim uArch: core:  5, cta: 1 initialized @(12500,0)
GPGPU-Sim uArch: cycles simulated: 12500  inst.: 4756994 (ipc=380.6) sim_rate=432454 (inst/sec) elapsed = 0:0:00:11 / Fri Jan 16 05:14:21 2015
GPGPU-Sim uArch: Shader 0 finished CTA #4 (12817,0), 7 CTAs running
GPGPU-Sim uArch: core:  0, cta: 4 initialized @(12818,0)
GPGPU-Sim uArch: Shader 4 finished CTA #3 (12825,0), 7 CTAs running
GPGPU-Sim uArch: core:  4, cta: 3 initialized @(12826,0)
GPGPU-Sim PTX: 5100000 instructions simulated : ctaid=(2,42,0) tid=(3,0,0)
GPGPU-Sim uArch: Shader 10 finished CTA #6 (12911,0), 7 CTAs running
GPGPU-Sim uArch: core: 10, cta: 6 initialized @(12912,0)
GPGPU-Sim uArch: Shader 8 finished CTA #1 (12972,0), 7 CTAs running
GPGPU-Sim uArch: core:  8, cta: 1 initialized @(12973,0)
GPGPU-Sim uArch: Shader 2 finished CTA #6 (12977,0), 7 CTAs running
GPGPU-Sim uArch: core:  2, cta: 6 initialized @(12978,0)
GPGPU-Sim uArch: Shader 10 finished CTA #1 (12992,0), 7 CTAs running
GPGPU-Sim uArch: core: 10, cta: 1 initialized @(12993,0)
GPGPU-Sim PTX: 5200000 instructions simulated : ctaid=(0,44,0) tid=(63,0,0)
GPGPU-Sim uArch: Shader 2 finished CTA #5 (13794,0), 7 CTAs running
GPGPU-Sim uArch: core:  2, cta: 5 initialized @(13795,0)
GPGPU-Sim uArch: cycles simulated: 14000  inst.: 4987702 (ipc=356.3) sim_rate=415641 (inst/sec) elapsed = 0:0:00:12 / Fri Jan 16 05:14:22 2015
GPGPU-Sim PTX: 5300000 instructions simulated : ctaid=(1,43,0) tid=(47,0,0)
GPGPU-Sim uArch: Shader 4 finished CTA #5 (14155,0), 7 CTAs running
GPGPU-Sim uArch: core:  4, cta: 5 initialized @(14156,0)
GPGPU-Sim uArch: Shader 12 finished CTA #5 (14433,0), 7 CTAs running
GPGPU-Sim uArch: core: 12, cta: 5 initialized @(14434,0)
GPGPU-Sim uArch: Shader 8 finished CTA #3 (14517,0), 7 CTAs running
GPGPU-Sim uArch: core:  8, cta: 3 initialized @(14518,0)
GPGPU-Sim uArch: Shader 4 finished CTA #7 (14529,0), 7 CTAs running
GPGPU-Sim uArch: core:  4, cta: 7 initialized @(14530,0)
GPGPU-Sim uArch: Shader 9 finished CTA #6 (14545,0), 7 CTAs running
GPGPU-Sim uArch: core:  9, cta: 6 initialized @(14546,0)
GPGPU-Sim uArch: Shader 9 finished CTA #4 (14573,0), 7 CTAs running
GPGPU-Sim uArch: core:  9, cta: 4 initialized @(14574,0)
GPGPU-Sim PTX: 5400000 instructions simulated : ctaid=(0,41,0) tid=(24,0,0)
GPGPU-Sim uArch: Shader 14 finished CTA #7 (14793,0), 7 CTAs running
GPGPU-Sim uArch: core: 14, cta: 7 initialized @(14794,0)
GPGPU-Sim uArch: Shader 14 finished CTA #3 (14946,0), 7 CTAs running
GPGPU-Sim uArch: core: 14, cta: 3 initialized @(14947,0)
GPGPU-Sim uArch: cycles simulated: 15000  inst.: 5147005 (ipc=343.1) sim_rate=395923 (inst/sec) elapsed = 0:0:00:13 / Fri Jan 16 05:14:23 2015
GPGPU-Sim uArch: Shader 1 finished CTA #4 (15002,0), 7 CTAs running
GPGPU-Sim uArch: core:  1, cta: 4 initialized @(15003,0)
GPGPU-Sim uArch: Shader 0 finished CTA #2 (15138,0), 7 CTAs running
GPGPU-Sim uArch: core:  0, cta: 2 initialized @(15139,0)
GPGPU-Sim PTX: 5500000 instructions simulated : ctaid=(3,42,0) tid=(52,0,0)
GPGPU-Sim uArch: Shader 13 finished CTA #3 (15256,0), 7 CTAs running
GPGPU-Sim uArch: core: 13, cta: 3 initialized @(15257,0)
GPGPU-Sim uArch: Shader 9 finished CTA #0 (15312,0), 7 CTAs running
GPGPU-Sim uArch: core:  9, cta: 0 initialized @(15313,0)
GPGPU-Sim uArch: Shader 5 finished CTA #4 (15315,0), 7 CTAs running
GPGPU-Sim uArch: core:  5, cta: 4 initialized @(15316,0)
GPGPU-Sim uArch: Shader 9 finished CTA #3 (15382,0), 7 CTAs running
GPGPU-Sim uArch: core:  9, cta: 3 initialized @(15383,0)
GPGPU-Sim uArch: Shader 5 finished CTA #6 (15442,0), 7 CTAs running
GPGPU-Sim uArch: core:  5, cta: 6 initialized @(15443,0)
GPGPU-Sim uArch: Shader 0 finished CTA #6 (15524,0), 7 CTAs running
GPGPU-Sim uArch: core:  0, cta: 6 initialized @(15525,0)
GPGPU-Sim uArch: Shader 14 finished CTA #5 (15579,0), 7 CTAs running
GPGPU-Sim uArch: core: 14, cta: 5 initialized @(15580,0)
GPGPU-Sim PTX: 5600000 instructions simulated : ctaid=(0,48,0) tid=(8,0,0)
GPGPU-Sim uArch: Shader 10 finished CTA #3 (16068,0), 7 CTAs running
GPGPU-Sim uArch: core: 10, cta: 3 initialized @(16069,0)
GPGPU-Sim uArch: Shader 11 finished CTA #0 (16096,0), 7 CTAs running
GPGPU-Sim uArch: core: 11, cta: 0 initialized @(16097,0)
GPGPU-Sim PTX: 5700000 instructions simulated : ctaid=(2,50,0) tid=(54,0,0)
GPGPU-Sim uArch: Shader 3 finished CTA #6 (16189,0), 7 CTAs running
GPGPU-Sim uArch: core:  3, cta: 6 initialized @(16190,0)
GPGPU-Sim uArch: Shader 12 finished CTA #1 (16210,0), 7 CTAs running
GPGPU-Sim uArch: core: 12, cta: 1 initialized @(16211,0)
GPGPU-Sim uArch: Shader 12 finished CTA #6 (16278,0), 7 CTAs running
GPGPU-Sim uArch: core: 12, cta: 6 initialized @(16279,0)
GPGPU-Sim uArch: Shader 8 finished CTA #0 (16346,0), 7 CTAs running
GPGPU-Sim uArch: core:  8, cta: 0 initialized @(16347,0)
GPGPU-Sim uArch: Shader 4 finished CTA #3 (16445,0), 7 CTAs running
GPGPU-Sim uArch: core:  4, cta: 3 initialized @(16446,0)
GPGPU-Sim uArch: Shader 12 finished CTA #0 (16451,0), 7 CTAs running
GPGPU-Sim uArch: core: 12, cta: 0 initialized @(16452,0)
GPGPU-Sim uArch: Shader 11 finished CTA #4 (16480,0), 7 CTAs running
GPGPU-Sim uArch: core: 11, cta: 4 initialized @(16481,0)
GPGPU-Sim uArch: Shader 11 finished CTA #3 (16486,0), 7 CTAs running
GPGPU-Sim uArch: core: 11, cta: 3 initialized @(16487,0)
GPGPU-Sim uArch: cycles simulated: 16500  inst.: 5451608 (ipc=330.4) sim_rate=389400 (inst/sec) elapsed = 0:0:00:14 / Fri Jan 16 05:14:24 2015
GPGPU-Sim PTX: 5800000 instructions simulated : ctaid=(3,52,0) tid=(12,0,0)
GPGPU-Sim uArch: Shader 2 finished CTA #1 (16827,0), 7 CTAs running
GPGPU-Sim uArch: core:  2, cta: 1 initialized @(16828,0)
GPGPU-Sim PTX: 5900000 instructions simulated : ctaid=(3,48,0) tid=(7,0,0)
GPGPU-Sim uArch: Shader 10 finished CTA #7 (16946,0), 7 CTAs running
GPGPU-Sim uArch: core: 10, cta: 7 initialized @(16947,0)
GPGPU-Sim uArch: Shader 3 finished CTA #1 (17234,0), 7 CTAs running
GPGPU-Sim uArch: core:  3, cta: 1 initialized @(17235,0)
GPGPU-Sim PTX: 6000000 instructions simulated : ctaid=(1,52,0) tid=(21,0,0)
GPGPU-Sim uArch: Shader 3 finished CTA #3 (17324,0), 7 CTAs running
GPGPU-Sim uArch: core:  3, cta: 3 initialized @(17325,0)
GPGPU-Sim uArch: Shader 9 finished CTA #7 (17540,0), 7 CTAs running
GPGPU-Sim uArch: core:  9, cta: 7 initialized @(17541,0)
GPGPU-Sim uArch: Shader 13 finished CTA #6 (17566,0), 7 CTAs running
GPGPU-Sim uArch: core: 13, cta: 6 initialized @(17567,0)
GPGPU-Sim uArch: Shader 14 finished CTA #7 (17667,0), 7 CTAs running
GPGPU-Sim uArch: core: 14, cta: 7 initialized @(17668,0)
GPGPU-Sim PTX: 6100000 instructions simulated : ctaid=(3,52,0) tid=(2,0,0)
GPGPU-Sim uArch: Shader 14 finished CTA #0 (17994,0), 7 CTAs running
GPGPU-Sim uArch: core: 14, cta: 0 initialized @(17995,0)
GPGPU-Sim uArch: cycles simulated: 18000  inst.: 5818137 (ipc=323.2) sim_rate=387875 (inst/sec) elapsed = 0:0:00:15 / Fri Jan 16 05:14:25 2015
GPGPU-Sim uArch: Shader 14 finished CTA #6 (18044,0), 7 CTAs running
GPGPU-Sim uArch: core: 14, cta: 6 initialized @(18045,0)
GPGPU-Sim uArch: Shader 2 finished CTA #0 (18053,0), 7 CTAs running
GPGPU-Sim uArch: core:  2, cta: 0 initialized @(18054,0)
GPGPU-Sim PTX: 6200000 instructions simulated : ctaid=(2,52,0) tid=(1,0,0)
GPGPU-Sim uArch: Shader 10 finished CTA #5 (18218,0), 7 CTAs running
GPGPU-Sim uArch: core: 10, cta: 5 initialized @(18219,0)
GPGPU-Sim uArch: Shader 2 finished CTA #7 (18317,0), 7 CTAs running
GPGPU-Sim uArch: core:  2, cta: 7 initialized @(18318,0)
GPGPU-Sim uArch: Shader 9 finished CTA #2 (18361,0), 7 CTAs running
GPGPU-Sim uArch: core:  9, cta: 2 initialized @(18362,0)
GPGPU-Sim uArch: Shader 8 finished CTA #3 (18427,0), 7 CTAs running
GPGPU-Sim uArch: core:  8, cta: 3 initialized @(18428,0)
GPGPU-Sim uArch: Shader 10 finished CTA #1 (18487,0), 7 CTAs running
GPGPU-Sim uArch: core: 10, cta: 1 initialized @(18488,0)
GPGPU-Sim PTX: 6300000 instructions simulated : ctaid=(0,53,0) tid=(35,0,0)
GPGPU-Sim uArch: Shader 13 finished CTA #3 (18528,0), 7 CTAs running
GPGPU-Sim uArch: core: 13, cta: 3 initialized @(18529,0)
GPGPU-Sim uArch: Shader 8 finished CTA #5 (18811,0), 7 CTAs running
GPGPU-Sim uArch: core:  8, cta: 5 initialized @(18812,0)
GPGPU-Sim PTX: 6400000 instructions simulated : ctaid=(0,57,0) tid=(57,0,0)
GPGPU-Sim uArch: Shader 11 finished CTA #2 (18896,0), 7 CTAs running
GPGPU-Sim uArch: core: 11, cta: 2 initialized @(18897,0)
GPGPU-Sim uArch: Shader 4 finished CTA #2 (18942,0), 7 CTAs running
GPGPU-Sim uArch: core:  4, cta: 2 initialized @(18943,0)
GPGPU-Sim uArch: Shader 5 finished CTA #7 (18982,0), 7 CTAs running
GPGPU-Sim uArch: core:  5, cta: 7 initialized @(18983,0)
GPGPU-Sim uArch: cycles simulated: 19000  inst.: 6061508 (ipc=319.0) sim_rate=378844 (inst/sec) elapsed = 0:0:00:16 / Fri Jan 16 05:14:26 2015
GPGPU-Sim uArch: Shader 13 finished CTA #0 (19124,0), 7 CTAs running
GPGPU-Sim uArch: core: 13, cta: 0 initialized @(19125,0)
GPGPU-Sim uArch: Shader 7 finished CTA #2 (19190,0), 7 CTAs running
GPGPU-Sim uArch: core:  7, cta: 2 initialized @(19191,0)
GPGPU-Sim PTX: 6500000 instructions simulated : ctaid=(1,41,0) tid=(39,0,0)
GPGPU-Sim uArch: Shader 8 finished CTA #6 (19380,0), 7 CTAs running
GPGPU-Sim uArch: core:  8, cta: 6 initialized @(19381,0)
GPGPU-Sim uArch: Shader 5 finished CTA #6 (19385,0), 7 CTAs running
GPGPU-Sim uArch: core:  5, cta: 6 initialized @(19386,0)
GPGPU-Sim uArch: Shader 6 finished CTA #1 (19428,0), 7 CTAs running
GPGPU-Sim uArch: core:  6, cta: 1 initialized @(19429,0)
GPGPU-Sim uArch: Shader 0 finished CTA #3 (19441,0), 7 CTAs running
GPGPU-Sim uArch: core:  0, cta: 3 initialized @(19442,0)
GPGPU-Sim uArch: Shader 10 finished CTA #2 (19541,0), 7 CTAs running
GPGPU-Sim uArch: core: 10, cta: 2 initialized @(19542,0)
GPGPU-Sim uArch: Shader 7 finished CTA #4 (19567,0), 7 CTAs running
GPGPU-Sim uArch: core:  7, cta: 4 initialized @(19568,0)
GPGPU-Sim PTX: 6600000 instructions simulated : ctaid=(1,54,0) tid=(12,0,0)
GPGPU-Sim uArch: Shader 0 finished CTA #4 (19656,0), 7 CTAs running
GPGPU-Sim uArch: core:  0, cta: 4 initialized @(19657,0)
GPGPU-Sim uArch: Shader 4 finished CTA #1 (19725,0), 7 CTAs running
GPGPU-Sim uArch: core:  4, cta: 1 initialized @(19726,0)
GPGPU-Sim PTX: 6700000 instructions simulated : ctaid=(3,56,0) tid=(23,0,0)
GPGPU-Sim uArch: Shader 11 finished CTA #0 (19999,0), 7 CTAs running
GPGPU-Sim uArch: core: 11, cta: 0 initialized @(20000,0)
GPGPU-Sim uArch: Shader 6 finished CTA #4 (20188,0), 7 CTAs running
GPGPU-Sim uArch: core:  6, cta: 4 initialized @(20189,0)
GPGPU-Sim PTX: 6800000 instructions simulated : ctaid=(2,50,0) tid=(18,0,0)
GPGPU-Sim uArch: Shader 3 finished CTA #7 (20275,0), 7 CTAs running
GPGPU-Sim uArch: core:  3, cta: 7 initialized @(20276,0)
GPGPU-Sim uArch: Shader 5 finished CTA #1 (20329,0), 7 CTAs running
GPGPU-Sim uArch: core:  5, cta: 1 initialized @(20330,0)
GPGPU-Sim uArch: cycles simulated: 20500  inst.: 6479232 (ipc=316.1) sim_rate=381131 (inst/sec) elapsed = 0:0:00:17 / Fri Jan 16 05:14:27 2015
GPGPU-Sim uArch: Shader 13 finished CTA #5 (20526,0), 7 CTAs running
GPGPU-Sim uArch: core: 13, cta: 5 initialized @(20527,0)
GPGPU-Sim uArch: Shader 0 finished CTA #7 (20549,0), 7 CTAs running
GPGPU-Sim uArch: core:  0, cta: 7 initialized @(20550,0)
GPGPU-Sim PTX: 6900000 instructions simulated : ctaid=(0,55,0) tid=(33,0,0)
GPGPU-Sim uArch: Shader 7 finished CTA #1 (20659,0), 7 CTAs running
GPGPU-Sim uArch: core:  7, cta: 1 initialized @(20660,0)
GPGPU-Sim uArch: Shader 14 finished CTA #1 (20673,0), 7 CTAs running
GPGPU-Sim uArch: core: 14, cta: 1 initialized @(20674,0)
GPGPU-Sim uArch: Shader 1 finished CTA #1 (20706,0), 7 CTAs running
GPGPU-Sim uArch: core:  1, cta: 1 initialized @(20707,0)
GPGPU-Sim uArch: Shader 12 finished CTA #2 (20778,0), 7 CTAs running
GPGPU-Sim uArch: core: 12, cta: 2 initialized @(20779,0)
GPGPU-Sim uArch: Shader 9 finished CTA #4 (20850,0), 7 CTAs running
GPGPU-Sim uArch: core:  9, cta: 4 initialized @(20851,0)
GPGPU-Sim uArch: Shader 7 finished CTA #7 (20853,0), 7 CTAs running
GPGPU-Sim uArch: core:  7, cta: 7 initialized @(20854,0)
GPGPU-Sim uArch: Shader 5 finished CTA #3 (20866,0), 7 CTAs running
GPGPU-Sim uArch: core:  5, cta: 3 initialized @(20867,0)
GPGPU-Sim PTX: 7000000 instructions simulated : ctaid=(1,6,0) tid=(63,0,0)
GPGPU-Sim uArch: Shader 6 finished CTA #5 (20919,0), 7 CTAs running
GPGPU-Sim uArch: core:  6, cta: 5 initialized @(20920,0)
GPGPU-Sim uArch: Shader 11 finished CTA #1 (21055,0), 7 CTAs running
GPGPU-Sim uArch: core: 11, cta: 1 initialized @(21056,0)
GPGPU-Sim uArch: Shader 11 finished CTA #7 (21167,0), 7 CTAs running
GPGPU-Sim uArch: core: 11, cta: 7 initialized @(21168,0)
GPGPU-Sim PTX: 7100000 instructions simulated : ctaid=(2,60,0) tid=(53,0,0)
GPGPU-Sim uArch: Shader 10 finished CTA #4 (21381,0), 7 CTAs running
GPGPU-Sim uArch: core: 10, cta: 4 initialized @(21382,0)
GPGPU-Sim uArch: cycles simulated: 21500  inst.: 6784746 (ipc=315.6) sim_rate=376930 (inst/sec) elapsed = 0:0:00:18 / Fri Jan 16 05:14:28 2015
GPGPU-Sim PTX: 7200000 instructions simulated : ctaid=(2,55,0) tid=(28,0,0)
GPGPU-Sim uArch: Shader 13 finished CTA #4 (21514,0), 7 CTAs running
GPGPU-Sim uArch: core: 13, cta: 4 initialized @(21515,0)
GPGPU-Sim uArch: Shader 12 finished CTA #7 (21692,0), 7 CTAs running
GPGPU-Sim uArch: core: 12, cta: 7 initialized @(21693,0)
GPGPU-Sim uArch: Shader 6 finished CTA #6 (21755,0), 7 CTAs running
GPGPU-Sim uArch: core:  6, cta: 6 initialized @(21756,0)
GPGPU-Sim PTX: 7300000 instructions simulated : ctaid=(3,59,0) tid=(23,0,0)
GPGPU-Sim uArch: Shader 9 finished CTA #6 (21853,0), 7 CTAs running
GPGPU-Sim uArch: core:  9, cta: 6 initialized @(21854,0)
GPGPU-Sim uArch: Shader 0 finished CTA #1 (22098,0), 7 CTAs running
GPGPU-Sim uArch: core:  0, cta: 1 initialized @(22099,0)
GPGPU-Sim uArch: Shader 7 finished CTA #3 (22107,0), 7 CTAs running
GPGPU-Sim uArch: core:  7, cta: 3 initialized @(22108,0)
GPGPU-Sim PTX: 7400000 instructions simulated : ctaid=(2,57,0) tid=(3,0,0)
GPGPU-Sim uArch: Shader 7 finished CTA #0 (22204,0), 7 CTAs running
GPGPU-Sim uArch: core:  7, cta: 0 initialized @(22205,0)
GPGPU-Sim uArch: Shader 9 finished CTA #5 (22213,0), 7 CTAs running
GPGPU-Sim uArch: Shader 13 finished CTA #2 (22213,0), 7 CTAs running
GPGPU-Sim uArch: core:  9, cta: 5 initialized @(22214,0)
GPGPU-Sim uArch: core: 13, cta: 2 initialized @(22214,0)
GPGPU-Sim PTX: 7500000 instructions simulated : ctaid=(3,63,0) tid=(48,0,0)
GPGPU-Sim uArch: Shader 6 finished CTA #7 (22460,0), 7 CTAs running
GPGPU-Sim uArch: core:  6, cta: 7 initialized @(22461,0)
GPGPU-Sim uArch: Shader 8 finished CTA #4 (22523,0), 7 CTAs running
GPGPU-Sim uArch: core:  8, cta: 4 initialized @(22524,0)
GPGPU-Sim PTX: 7600000 instructions simulated : ctaid=(2,60,0) tid=(6,0,0)
GPGPU-Sim uArch: Shader 4 finished CTA #6 (22796,0), 7 CTAs running
GPGPU-Sim uArch: core:  4, cta: 6 initialized @(22797,0)
GPGPU-Sim uArch: Shader 7 finished CTA #4 (22811,0), 7 CTAs running
GPGPU-Sim uArch: core:  7, cta: 4 initialized @(22812,0)
GPGPU-Sim uArch: Shader 13 finished CTA #1 (22845,0), 7 CTAs running
GPGPU-Sim uArch: core: 13, cta: 1 initialized @(22846,0)
GPGPU-Sim uArch: Shader 5 finished CTA #6 (22941,0), 7 CTAs running
GPGPU-Sim uArch: core:  5, cta: 6 initialized @(22942,0)
GPGPU-Sim uArch: cycles simulated: 23000  inst.: 7249206 (ipc=315.2) sim_rate=381537 (inst/sec) elapsed = 0:0:00:19 / Fri Jan 16 05:14:29 2015
GPGPU-Sim uArch: Shader 6 finished CTA #3 (23020,0), 7 CTAs running
GPGPU-Sim uArch: core:  6, cta: 3 initialized @(23021,0)
GPGPU-Sim PTX: 7700000 instructions simulated : ctaid=(1,52,0) tid=(54,0,0)
GPGPU-Sim uArch: Shader 6 finished CTA #2 (23096,0), 7 CTAs running
GPGPU-Sim uArch: core:  6, cta: 2 initialized @(23097,0)
GPGPU-Sim uArch: Shader 2 finished CTA #4 (23174,0), 7 CTAs running
GPGPU-Sim uArch: core:  2, cta: 4 initialized @(23175,0)
GPGPU-Sim PTX: 7800000 instructions simulated : ctaid=(1,66,0) tid=(41,0,0)
GPGPU-Sim uArch: Shader 1 finished CTA #3 (23526,0), 7 CTAs running
GPGPU-Sim uArch: core:  1, cta: 3 initialized @(23527,0)
GPGPU-Sim PTX: 7900000 instructions simulated : ctaid=(0,53,0) tid=(5,0,0)
GPGPU-Sim uArch: Shader 6 finished CTA #4 (23701,0), 7 CTAs running
GPGPU-Sim uArch: core:  6, cta: 4 initialized @(23702,0)
GPGPU-Sim uArch: Shader 1 finished CTA #4 (23719,0), 7 CTAs running
GPGPU-Sim uArch: core:  1, cta: 4 initialized @(23720,0)
GPGPU-Sim uArch: Shader 1 finished CTA #7 (23847,0), 7 CTAs running
GPGPU-Sim uArch: core:  1, cta: 7 initialized @(23848,0)
GPGPU-Sim uArch: Shader 14 finished CTA #0 (23883,0), 7 CTAs running
GPGPU-Sim uArch: core: 14, cta: 0 initialized @(23884,0)
GPGPU-Sim PTX: 8000000 instructions simulated : ctaid=(0,66,0) tid=(23,0,0)
GPGPU-Sim uArch: Shader 1 finished CTA #5 (23939,0), 7 CTAs running
GPGPU-Sim uArch: core:  1, cta: 5 initialized @(23940,0)
GPGPU-Sim uArch: Shader 11 finished CTA #6 (23946,0), 7 CTAs running
GPGPU-Sim uArch: core: 11, cta: 6 initialized @(23947,0)
GPGPU-Sim uArch: Shader 12 finished CTA #6 (23953,0), 7 CTAs running
GPGPU-Sim uArch: core: 12, cta: 6 initialized @(23954,0)
GPGPU-Sim uArch: cycles simulated: 24000  inst.: 7562056 (ipc=315.1) sim_rate=378102 (inst/sec) elapsed = 0:0:00:20 / Fri Jan 16 05:14:30 2015
GPGPU-Sim uArch: Shader 3 finished CTA #2 (24045,0), 7 CTAs running
GPGPU-Sim uArch: core:  3, cta: 2 initialized @(24046,0)
GPGPU-Sim uArch: Shader 0 finished CTA #7 (24080,0), 7 CTAs running
GPGPU-Sim uArch: core:  0, cta: 7 initialized @(24081,0)
GPGPU-Sim uArch: Shader 8 finished CTA #2 (24142,0), 7 CTAs running
GPGPU-Sim uArch: core:  8, cta: 2 initialized @(24143,0)
GPGPU-Sim uArch: Shader 14 finished CTA #2 (24156,0), 7 CTAs running
GPGPU-Sim uArch: core: 14, cta: 2 initialized @(24157,0)
GPGPU-Sim uArch: Shader 8 finished CTA #1 (24205,0), 7 CTAs running
GPGPU-Sim uArch: core:  8, cta: 1 initialized @(24206,0)
GPGPU-Sim PTX: 8100000 instructions simulated : ctaid=(2,64,0) tid=(61,0,0)
GPGPU-Sim uArch: Shader 5 finished CTA #7 (24474,0), 7 CTAs running
GPGPU-Sim uArch: core:  5, cta: 7 initialized @(24475,0)
GPGPU-Sim uArch: Shader 13 finished CTA #3 (24482,0), 7 CTAs running
GPGPU-Sim uArch: core: 13, cta: 3 initialized @(24483,0)
GPGPU-Sim uArch: Shader 12 finished CTA #2 (24483,0), 7 CTAs running
GPGPU-Sim uArch: core: 12, cta: 2 initialized @(24484,0)
GPGPU-Sim PTX: 8200000 instructions simulated : ctaid=(2,65,0) tid=(27,0,0)
GPGPU-Sim uArch: Shader 6 finished CTA #5 (24659,0), 7 CTAs running
GPGPU-Sim uArch: core:  6, cta: 5 initialized @(24660,0)
GPGPU-Sim PTX: 8300000 instructions simulated : ctaid=(2,65,0) tid=(4,0,0)
GPGPU-Sim uArch: Shader 8 finished CTA #0 (24788,0), 7 CTAs running
GPGPU-Sim uArch: core:  8, cta: 0 initialized @(24789,0)
GPGPU-Sim uArch: Shader 2 finished CTA #2 (24810,0), 7 CTAs running
GPGPU-Sim uArch: core:  2, cta: 2 initialized @(24811,0)
GPGPU-Sim uArch: Shader 0 finished CTA #6 (24822,0), 7 CTAs running
GPGPU-Sim uArch: core:  0, cta: 6 initialized @(24823,0)
GPGPU-Sim uArch: Shader 2 finished CTA #7 (24854,0), 7 CTAs running
GPGPU-Sim uArch: core:  2, cta: 7 initialized @(24855,0)
GPGPU-Sim uArch: cycles simulated: 25000  inst.: 7905998 (ipc=316.2) sim_rate=376476 (inst/sec) elapsed = 0:0:00:21 / Fri Jan 16 05:14:31 2015
GPGPU-Sim uArch: Shader 11 finished CTA #3 (25018,0), 7 CTAs running
GPGPU-Sim uArch: core: 11, cta: 3 initialized @(25019,0)
GPGPU-Sim PTX: 8400000 instructions simulated : ctaid=(2,62,0) tid=(4,0,0)
GPGPU-Sim uArch: Shader 4 finished CTA #5 (25056,0), 7 CTAs running
GPGPU-Sim uArch: core:  4, cta: 5 initialized @(25057,0)
GPGPU-Sim PTX: 8500000 instructions simulated : ctaid=(0,66,0) tid=(16,0,0)
GPGPU-Sim uArch: Shader 4 finished CTA #0 (25403,0), 7 CTAs running
GPGPU-Sim uArch: core:  4, cta: 0 initialized @(25404,0)
GPGPU-Sim uArch: Shader 11 finished CTA #5 (25445,0), 7 CTAs running
GPGPU-Sim uArch: core: 11, cta: 5 initialized @(25446,0)
GPGPU-Sim PTX: 8600000 instructions simulated : ctaid=(3,70,0) tid=(28,0,0)
GPGPU-Sim uArch: Shader 7 finished CTA #5 (25699,0), 7 CTAs running
GPGPU-Sim uArch: core:  7, cta: 5 initialized @(25700,0)
GPGPU-Sim uArch: Shader 0 finished CTA #1 (25711,0), 7 CTAs running
GPGPU-Sim uArch: core:  0, cta: 1 initialized @(25712,0)
GPGPU-Sim PTX: 8700000 instructions simulated : ctaid=(3,71,0) tid=(35,0,0)
GPGPU-Sim uArch: Shader 13 finished CTA #4 (25872,0), 7 CTAs running
GPGPU-Sim uArch: core: 13, cta: 4 initialized @(25873,0)
GPGPU-Sim uArch: Shader 7 finished CTA #6 (25894,0), 7 CTAs running
GPGPU-Sim uArch: core:  7, cta: 6 initialized @(25895,0)
GPGPU-Sim PTX: 8800000 instructions simulated : ctaid=(0,67,0) tid=(34,0,0)
GPGPU-Sim uArch: Shader 12 finished CTA #3 (26093,0), 7 CTAs running
GPGPU-Sim uArch: core: 12, cta: 3 initialized @(26094,0)
GPGPU-Sim uArch: Shader 0 finished CTA #2 (26223,0), 7 CTAs running
GPGPU-Sim uArch: core:  0, cta: 2 initialized @(26224,0)
GPGPU-Sim uArch: Shader 2 finished CTA #5 (26253,0), 7 CTAs running
GPGPU-Sim uArch: core:  2, cta: 5 initialized @(26254,0)
GPGPU-Sim PTX: 8900000 instructions simulated : ctaid=(1,72,0) tid=(24,0,0)
GPGPU-Sim uArch: cycles simulated: 26500  inst.: 8448584 (ipc=318.8) sim_rate=384026 (inst/sec) elapsed = 0:0:00:22 / Fri Jan 16 05:14:32 2015
GPGPU-Sim uArch: Shader 3 finished CTA #3 (26533,0), 7 CTAs running
GPGPU-Sim uArch: core:  3, cta: 3 initialized @(26534,0)
GPGPU-Sim uArch: Shader 1 finished CTA #2 (26585,0), 7 CTAs running
GPGPU-Sim uArch: core:  1, cta: 2 initialized @(26586,0)
GPGPU-Sim PTX: 9000000 instructions simulated : ctaid=(2,60,0) tid=(26,0,0)
GPGPU-Sim uArch: Shader 2 finished CTA #3 (26658,0), 7 CTAs running
GPGPU-Sim uArch: core:  2, cta: 3 initialized @(26659,0)
GPGPU-Sim uArch: Shader 3 finished CTA #4 (26838,0), 7 CTAs running
GPGPU-Sim uArch: core:  3, cta: 4 initialized @(26839,0)
GPGPU-Sim PTX: 9100000 instructions simulated : ctaid=(1,75,0) tid=(26,0,0)
GPGPU-Sim uArch: Shader 5 finished CTA #2 (26855,0), 7 CTAs running
GPGPU-Sim uArch: core:  5, cta: 2 initialized @(26856,0)
GPGPU-Sim uArch: Shader 1 finished CTA #6 (26874,0), 7 CTAs running
GPGPU-Sim uArch: core:  1, cta: 6 initialized @(26875,0)
GPGPU-Sim PTX: 9200000 instructions simulated : ctaid=(0,69,0) tid=(28,0,0)
GPGPU-Sim uArch: Shader 5 finished CTA #5 (27234,0), 7 CTAs running
GPGPU-Sim uArch: core:  5, cta: 5 initialized @(27235,0)
GPGPU-Sim PTX: 9300000 instructions simulated : ctaid=(1,66,0) tid=(51,0,0)
GPGPU-Sim uArch: cycles simulated: 27500  inst.: 8808531 (ipc=320.3) sim_rate=382979 (inst/sec) elapsed = 0:0:00:23 / Fri Jan 16 05:14:33 2015
GPGPU-Sim uArch: Shader 9 finished CTA #1 (27568,0), 7 CTAs running
GPGPU-Sim uArch: core:  9, cta: 1 initialized @(27569,0)
GPGPU-Sim PTX: 9400000 instructions simulated : ctaid=(3,69,0) tid=(55,0,0)
GPGPU-Sim uArch: Shader 13 finished CTA #7 (27708,0), 7 CTAs running
GPGPU-Sim uArch: core: 13, cta: 7 initialized @(27709,0)
GPGPU-Sim uArch: Shader 2 finished CTA #0 (27785,0), 7 CTAs running
GPGPU-Sim uArch: core:  2, cta: 0 initialized @(27786,0)
GPGPU-Sim uArch: Shader 0 finished CTA #0 (27905,0), 7 CTAs running
GPGPU-Sim uArch: core:  0, cta: 0 initialized @(27906,0)
GPGPU-Sim PTX: 9500000 instructions simulated : ctaid=(3,76,0) tid=(46,0,0)
GPGPU-Sim uArch: Shader 6 finished CTA #0 (27947,0), 7 CTAs running
GPGPU-Sim uArch: core:  6, cta: 0 initialized @(27948,0)
GPGPU-Sim uArch: Shader 12 finished CTA #0 (27998,0), 7 CTAs running
GPGPU-Sim uArch: core: 12, cta: 0 initialized @(27999,0)
GPGPU-Sim uArch: Shader 10 finished CTA #3 (28146,0), 7 CTAs running
GPGPU-Sim uArch: core: 10, cta: 3 initialized @(28147,0)
GPGPU-Sim PTX: 9600000 instructions simulated : ctaid=(1,79,0) tid=(1,0,0)
GPGPU-Sim uArch: Shader 9 finished CTA #0 (28192,0), 7 CTAs running
GPGPU-Sim uArch: core:  9, cta: 0 initialized @(28193,0)
GPGPU-Sim uArch: Shader 12 finished CTA #5 (28392,0), 7 CTAs running
GPGPU-Sim uArch: core: 12, cta: 5 initialized @(28393,0)
GPGPU-Sim uArch: Shader 5 finished CTA #0 (28411,0), 7 CTAs running
GPGPU-Sim uArch: core:  5, cta: 0 initialized @(28412,0)
GPGPU-Sim PTX: 9700000 instructions simulated : ctaid=(0,78,0) tid=(31,0,0)
GPGPU-Sim uArch: Shader 3 finished CTA #5 (28487,0), 7 CTAs running
GPGPU-Sim uArch: core:  3, cta: 5 initialized @(28488,0)
GPGPU-Sim uArch: cycles simulated: 28500  inst.: 9160692 (ipc=321.4) sim_rate=381695 (inst/sec) elapsed = 0:0:00:24 / Fri Jan 16 05:14:34 2015
GPGPU-Sim uArch: Shader 10 finished CTA #0 (28559,0), 7 CTAs running
GPGPU-Sim uArch: core: 10, cta: 0 initialized @(28560,0)
GPGPU-Sim uArch: Shader 14 finished CTA #4 (28627,0), 7 CTAs running
GPGPU-Sim uArch: core: 14, cta: 4 initialized @(28628,0)
GPGPU-Sim PTX: 9800000 instructions simulated : ctaid=(1,75,0) tid=(59,0,0)
GPGPU-Sim uArch: Shader 10 finished CTA #7 (28764,0), 7 CTAs running
GPGPU-Sim uArch: core: 10, cta: 7 initialized @(28765,0)
GPGPU-Sim uArch: Shader 3 finished CTA #0 (28782,0), 7 CTAs running
GPGPU-Sim uArch: core:  3, cta: 0 initialized @(28783,0)
GPGPU-Sim PTX: 9900000 instructions simulated : ctaid=(0,82,0) tid=(20,0,0)
GPGPU-Sim uArch: Shader 14 finished CTA #6 (29032,0), 7 CTAs running
GPGPU-Sim uArch: core: 14, cta: 6 initialized @(29033,0)
GPGPU-Sim PTX: 10000000 instructions simulated : ctaid=(2,75,0) tid=(7,0,0)
GPGPU-Sim PTX: 10100000 instructions simulated : ctaid=(2,77,0) tid=(4,0,0)
GPGPU-Sim uArch: cycles simulated: 29500  inst.: 9527027 (ipc=323.0) sim_rate=381081 (inst/sec) elapsed = 0:0:00:25 / Fri Jan 16 05:14:35 2015
GPGPU-Sim uArch: Shader 12 finished CTA #4 (29595,0), 7 CTAs running
GPGPU-Sim uArch: core: 12, cta: 4 initialized @(29596,0)
GPGPU-Sim uArch: Shader 14 finished CTA #3 (29677,0), 7 CTAs running
GPGPU-Sim uArch: core: 14, cta: 3 initialized @(29678,0)
GPGPU-Sim PTX: 10200000 instructions simulated : ctaid=(0,28,0) tid=(36,0,0)
GPGPU-Sim uArch: Shader 4 finished CTA #3 (29879,0), 7 CTAs running
GPGPU-Sim uArch: core:  4, cta: 3 initialized @(29880,0)
GPGPU-Sim uArch: Shader 0 finished CTA #5 (30002,0), 7 CTAs running
GPGPU-Sim uArch: core:  0, cta: 5 initialized @(30003,0)
GPGPU-Sim PTX: 10300000 instructions simulated : ctaid=(2,74,0) tid=(39,0,0)
GPGPU-Sim uArch: Shader 1 finished CTA #0 (30056,0), 7 CTAs running
GPGPU-Sim uArch: core:  1, cta: 0 initialized @(30057,0)
GPGPU-Sim PTX: 10400000 instructions simulated : ctaid=(2,76,0) tid=(6,0,0)
GPGPU-Sim uArch: Shader 8 finished CTA #3 (30305,0), 7 CTAs running
GPGPU-Sim uArch: core:  8, cta: 3 initialized @(30306,0)
GPGPU-Sim uArch: Shader 14 finished CTA #1 (30410,0), 7 CTAs running
GPGPU-Sim uArch: core: 14, cta: 1 initialized @(30411,0)
GPGPU-Sim uArch: Shader 3 finished CTA #1 (30535,0), 7 CTAs running
GPGPU-Sim uArch: core:  3, cta: 1 initialized @(30536,0)
GPGPU-Sim PTX: 10500000 instructions simulated : ctaid=(2,78,0) tid=(3,0,0)
GPGPU-Sim uArch: Shader 13 finished CTA #6 (30691,0), 7 CTAs running
GPGPU-Sim uArch: core: 13, cta: 6 initialized @(30692,0)
GPGPU-Sim PTX: 10600000 instructions simulated : ctaid=(3,77,0) tid=(55,0,0)
GPGPU-Sim uArch: cycles simulated: 31000  inst.: 10047330 (ipc=324.1) sim_rate=386435 (inst/sec) elapsed = 0:0:00:26 / Fri Jan 16 05:14:36 2015
GPGPU-Sim uArch: Shader 8 finished CTA #7 (31031,0), 7 CTAs running
GPGPU-Sim uArch: core:  8, cta: 7 initialized @(31032,0)
GPGPU-Sim PTX: 10700000 instructions simulated : ctaid=(3,77,0) tid=(21,0,0)
GPGPU-Sim uArch: Shader 4 finished CTA #7 (31151,0), 7 CTAs running
GPGPU-Sim uArch: core:  4, cta: 7 initialized @(31152,0)
GPGPU-Sim uArch: Shader 2 finished CTA #6 (31244,0), 7 CTAs running
GPGPU-Sim uArch: core:  2, cta: 6 initialized @(31245,0)
GPGPU-Sim uArch: Shader 14 finished CTA #5 (31360,0), 7 CTAs running
GPGPU-Sim uArch: core: 14, cta: 5 initialized @(31361,0)
GPGPU-Sim PTX: 10800000 instructions simulated : ctaid=(2,79,0) tid=(14,0,0)
GPGPU-Sim uArch: Shader 3 finished CTA #6 (31407,0), 7 CTAs running
GPGPU-Sim uArch: core:  3, cta: 6 initialized @(31408,0)
GPGPU-Sim uArch: Shader 5 finished CTA #1 (31633,0), 7 CTAs running
GPGPU-Sim uArch: core:  5, cta: 1 initialized @(31634,0)
GPGPU-Sim PTX: 10900000 instructions simulated : ctaid=(0,74,0) tid=(40,0,0)
GPGPU-Sim PTX: 11000000 instructions simulated : ctaid=(1,84,0) tid=(30,0,0)
GPGPU-Sim uArch: cycles simulated: 32000  inst.: 10386094 (ipc=324.6) sim_rate=384670 (inst/sec) elapsed = 0:0:00:27 / Fri Jan 16 05:14:37 2015
GPGPU-Sim PTX: 11100000 instructions simulated : ctaid=(2,71,0) tid=(21,0,0)
GPGPU-Sim uArch: Shader 5 finished CTA #4 (32270,0), 7 CTAs running
GPGPU-Sim uArch: core:  5, cta: 4 initialized @(32271,0)
GPGPU-Sim uArch: Shader 14 finished CTA #7 (32415,0), 7 CTAs running
GPGPU-Sim uArch: core: 14, cta: 7 initialized @(32416,0)
GPGPU-Sim PTX: 11200000 instructions simulated : ctaid=(2,84,0) tid=(14,0,0)
GPGPU-Sim uArch: Shader 12 finished CTA #1 (32675,0), 7 CTAs running
GPGPU-Sim uArch: core: 12, cta: 1 initialized @(32676,0)
GPGPU-Sim PTX: 11300000 instructions simulated : ctaid=(3,78,0) tid=(46,0,0)
GPGPU-Sim uArch: cycles simulated: 33000  inst.: 10710348 (ipc=324.6) sim_rate=382512 (inst/sec) elapsed = 0:0:00:28 / Fri Jan 16 05:14:38 2015
GPGPU-Sim PTX: 11400000 instructions simulated : ctaid=(2,80,0) tid=(1,0,0)
GPGPU-Sim uArch: Shader 6 finished CTA #1 (33148,0), 7 CTAs running
GPGPU-Sim uArch: core:  6, cta: 1 initialized @(33149,0)
GPGPU-Sim PTX: 11500000 instructions simulated : ctaid=(3,71,0) tid=(43,0,0)
GPGPU-Sim uArch: Shader 7 finished CTA #4 (33601,0), 7 CTAs running
GPGPU-Sim uArch: core:  7, cta: 4 initialized @(33602,0)
GPGPU-Sim uArch: Shader 4 finished CTA #4 (33611,0), 7 CTAs running
GPGPU-Sim uArch: core:  4, cta: 4 initialized @(33612,0)
GPGPU-Sim PTX: 11600000 instructions simulated : ctaid=(1,87,0) tid=(40,0,0)
GPGPU-Sim uArch: Shader 9 finished CTA #7 (33773,0), 7 CTAs running
GPGPU-Sim uArch: core:  9, cta: 7 initialized @(33774,0)
GPGPU-Sim uArch: Shader 13 finished CTA #2 (33854,0), 7 CTAs running
GPGPU-Sim uArch: core: 13, cta: 2 initialized @(33855,0)
GPGPU-Sim uArch: Shader 7 finished CTA #3 (33889,0), 7 CTAs running
GPGPU-Sim uArch: core:  7, cta: 3 initialized @(33890,0)
GPGPU-Sim PTX: 11700000 instructions simulated : ctaid=(0,75,0) tid=(20,0,0)
GPGPU-Sim uArch: cycles simulated: 34000  inst.: 11023472 (ipc=324.2) sim_rate=380119 (inst/sec) elapsed = 0:0:00:29 / Fri Jan 16 05:14:39 2015
GPGPU-Sim uArch: Shader 11 finished CTA #7 (34026,0), 7 CTAs running
GPGPU-Sim uArch: core: 11, cta: 7 initialized @(34027,0)
GPGPU-Sim PTX: 11800000 instructions simulated : ctaid=(1,86,0) tid=(27,0,0)
GPGPU-Sim PTX: 11900000 instructions simulated : ctaid=(3,86,0) tid=(2,0,0)
GPGPU-Sim PTX: 12000000 instructions simulated : ctaid=(2,78,0) tid=(2,0,0)
GPGPU-Sim uArch: cycles simulated: 35000  inst.: 11322485 (ipc=323.5) sim_rate=377416 (inst/sec) elapsed = 0:0:00:30 / Fri Jan 16 05:14:40 2015
GPGPU-Sim uArch: Shader 13 finished CTA #0 (35023,0), 7 CTAs running
GPGPU-Sim uArch: core: 13, cta: 0 initialized @(35024,0)
GPGPU-Sim PTX: 12100000 instructions simulated : ctaid=(2,84,0) tid=(19,0,0)
GPGPU-Sim uArch: Shader 9 finished CTA #3 (35421,0), 7 CTAs running
GPGPU-Sim uArch: core:  9, cta: 3 initialized @(35422,0)
GPGPU-Sim uArch: Shader 8 finished CTA #5 (35578,0), 7 CTAs running
GPGPU-Sim uArch: core:  8, cta: 5 initialized @(35579,0)
GPGPU-Sim PTX: 12200000 instructions simulated : ctaid=(3,87,0) tid=(7,0,0)
GPGPU-Sim uArch: Shader 11 finished CTA #0 (35761,0), 7 CTAs running
GPGPU-Sim uArch: core: 11, cta: 0 initialized @(35762,0)
GPGPU-Sim PTX: 12300000 instructions simulated : ctaid=(1,86,0) tid=(27,0,0)
GPGPU-Sim uArch: Shader 13 finished CTA #1 (35954,0), 7 CTAs running
GPGPU-Sim uArch: core: 13, cta: 1 initialized @(35955,0)
GPGPU-Sim uArch: Shader 1 finished CTA #4 (36222,0), 7 CTAs running
GPGPU-Sim uArch: core:  1, cta: 4 initialized @(36223,0)
GPGPU-Sim PTX: 12400000 instructions simulated : ctaid=(2,82,0) tid=(7,0,0)
GPGPU-Sim uArch: Shader 10 finished CTA #6 (36305,0), 7 CTAs running
GPGPU-Sim uArch: core: 10, cta: 6 initialized @(36306,0)
GPGPU-Sim uArch: Shader 3 finished CTA #7 (36418,0), 7 CTAs running
GPGPU-Sim uArch: core:  3, cta: 7 initialized @(36419,0)
GPGPU-Sim uArch: cycles simulated: 36500  inst.: 11738818 (ipc=321.6) sim_rate=378671 (inst/sec) elapsed = 0:0:00:31 / Fri Jan 16 05:14:41 2015
GPGPU-Sim PTX: 12500000 instructions simulated : ctaid=(0,77,0) tid=(17,0,0)
GPGPU-Sim PTX: 12600000 instructions simulated : ctaid=(0,78,0) tid=(37,0,0)
GPGPU-Sim uArch: Shader 7 finished CTA #0 (37173,0), 7 CTAs running
GPGPU-Sim uArch: core:  7, cta: 0 initialized @(37174,0)
GPGPU-Sim uArch: Shader 4 finished CTA #1 (37247,0), 7 CTAs running
GPGPU-Sim uArch: core:  4, cta: 1 initialized @(37248,0)
GPGPU-Sim uArch: Shader 1 finished CTA #1 (37295,0), 7 CTAs running
GPGPU-Sim uArch: core:  1, cta: 1 initialized @(37296,0)
GPGPU-Sim PTX: 12700000 instructions simulated : ctaid=(2,85,0) tid=(11,0,0)
GPGPU-Sim uArch: Shader 9 finished CTA #4 (37429,0), 7 CTAs running
GPGPU-Sim uArch: core:  9, cta: 4 initialized @(37430,0)
GPGPU-Sim uArch: Shader 7 finished CTA #1 (37449,0), 7 CTAs running
GPGPU-Sim uArch: core:  7, cta: 1 initialized @(37450,0)
GPGPU-Sim uArch: cycles simulated: 37500  inst.: 12008419 (ipc=320.2) sim_rate=375263 (inst/sec) elapsed = 0:0:00:32 / Fri Jan 16 05:14:42 2015
GPGPU-Sim uArch: Shader 5 finished CTA #6 (37615,0), 7 CTAs running
GPGPU-Sim uArch: core:  5, cta: 6 initialized @(37616,0)
GPGPU-Sim PTX: 12800000 instructions simulated : ctaid=(0,78,0) tid=(32,0,0)
GPGPU-Sim uArch: Shader 11 finished CTA #2 (37673,0), 7 CTAs running
GPGPU-Sim uArch: core: 11, cta: 2 initialized @(37674,0)
GPGPU-Sim uArch: Shader 2 finished CTA #4 (37855,0), 7 CTAs running
GPGPU-Sim uArch: core:  2, cta: 4 initialized @(37856,0)
GPGPU-Sim uArch: Shader 5 finished CTA #3 (38008,0), 7 CTAs running
GPGPU-Sim uArch: core:  5, cta: 3 initialized @(38009,0)
GPGPU-Sim PTX: 12900000 instructions simulated : ctaid=(3,87,0) tid=(37,0,0)
GPGPU-Sim PTX: 13000000 instructions simulated : ctaid=(2,68,0) tid=(13,0,0)
GPGPU-Sim uArch: Shader 6 finished CTA #2 (38373,0), 7 CTAs running
GPGPU-Sim uArch: core:  6, cta: 2 initialized @(38374,0)
GPGPU-Sim uArch: Shader 11 finished CTA #4 (38484,0), 7 CTAs running
GPGPU-Sim uArch: core: 11, cta: 4 initialized @(38485,0)
GPGPU-Sim PTX: 13100000 instructions simulated : ctaid=(1,76,0) tid=(49,0,0)
GPGPU-Sim uArch: Shader 2 finished CTA #2 (38756,0), 7 CTAs running
GPGPU-Sim uArch: core:  2, cta: 2 initialized @(38757,0)
GPGPU-Sim uArch: cycles simulated: 39000  inst.: 12415239 (ipc=318.3) sim_rate=376219 (inst/sec) elapsed = 0:0:00:33 / Fri Jan 16 05:14:43 2015
GPGPU-Sim PTX: 13200000 instructions simulated : ctaid=(2,90,0) tid=(24,0,0)
GPGPU-Sim uArch: Shader 10 finished CTA #4 (39076,0), 7 CTAs running
GPGPU-Sim uArch: core: 10, cta: 4 initialized @(39077,0)
GPGPU-Sim uArch: Shader 10 finished CTA #5 (39147,0), 7 CTAs running
GPGPU-Sim uArch: core: 10, cta: 5 initialized @(39148,0)
GPGPU-Sim PTX: 13300000 instructions simulated : ctaid=(0,88,0) tid=(62,0,0)
GPGPU-Sim uArch: Shader 7 finished CTA #7 (39746,0), 7 CTAs running
GPGPU-Sim uArch: core:  7, cta: 7 initialized @(39747,0)
GPGPU-Sim PTX: 13400000 instructions simulated : ctaid=(1,89,0) tid=(32,0,0)
GPGPU-Sim uArch: Shader 3 finished CTA #5 (39884,0), 7 CTAs running
GPGPU-Sim uArch: core:  3, cta: 5 initialized @(39885,0)
GPGPU-Sim uArch: cycles simulated: 40000  inst.: 12681586 (ipc=317.0) sim_rate=372987 (inst/sec) elapsed = 0:0:00:34 / Fri Jan 16 05:14:44 2015
GPGPU-Sim PTX: 13500000 instructions simulated : ctaid=(3,91,0) tid=(3,0,0)
GPGPU-Sim uArch: Shader 0 finished CTA #3 (40184,0), 7 CTAs running
GPGPU-Sim uArch: core:  0, cta: 3 initialized @(40185,0)
GPGPU-Sim uArch: Shader 0 finished CTA #7 (40454,0), 7 CTAs running
GPGPU-Sim uArch: core:  0, cta: 7 initialized @(40455,0)
GPGPU-Sim PTX: 13600000 instructions simulated : ctaid=(1,82,0) tid=(28,0,0)
GPGPU-Sim uArch: Shader 8 finished CTA #6 (40725,0), 7 CTAs running
GPGPU-Sim uArch: core:  8, cta: 6 initialized @(40726,0)
GPGPU-Sim uArch: Shader 6 finished CTA #7 (40780,0), 7 CTAs running
GPGPU-Sim uArch: core:  6, cta: 7 initialized @(40781,0)
GPGPU-Sim uArch: Shader 4 finished CTA #2 (40824,0), 7 CTAs running
GPGPU-Sim uArch: core:  4, cta: 2 initialized @(40825,0)
GPGPU-Sim PTX: 13700000 instructions simulated : ctaid=(0,96,0) tid=(12,0,0)
GPGPU-Sim uArch: Shader 4 finished CTA #3 (40921,0), 7 CTAs running
GPGPU-Sim uArch: core:  4, cta: 3 initialized @(40922,0)
GPGPU-Sim uArch: Shader 1 finished CTA #3 (40929,0), 7 CTAs running
GPGPU-Sim uArch: core:  1, cta: 3 initialized @(40930,0)
GPGPU-Sim uArch: cycles simulated: 41000  inst.: 12940147 (ipc=315.6) sim_rate=369718 (inst/sec) elapsed = 0:0:00:35 / Fri Jan 16 05:14:45 2015
GPGPU-Sim uArch: Shader 10 finished CTA #1 (41061,0), 7 CTAs running
GPGPU-Sim uArch: core: 10, cta: 1 initialized @(41062,0)
GPGPU-Sim PTX: 13800000 instructions simulated : ctaid=(0,75,0) tid=(47,0,0)
GPGPU-Sim uArch: Shader 8 finished CTA #2 (41311,0), 7 CTAs running
GPGPU-Sim uArch: core:  8, cta: 2 initialized @(41312,0)
GPGPU-Sim PTX: 13900000 instructions simulated : ctaid=(2,96,0) tid=(39,0,0)
GPGPU-Sim uArch: Shader 8 finished CTA #4 (41754,0), 7 CTAs running
GPGPU-Sim uArch: core:  8, cta: 4 initialized @(41755,0)
GPGPU-Sim PTX: 14000000 instructions simulated : ctaid=(1,86,0) tid=(57,0,0)
GPGPU-Sim uArch: Shader 11 finished CTA #1 (41990,0), 7 CTAs running
GPGPU-Sim uArch: core: 11, cta: 1 initialized @(41991,0)
GPGPU-Sim uArch: Shader 3 finished CTA #2 (42099,0), 7 CTAs running
GPGPU-Sim uArch: core:  3, cta: 2 initialized @(42100,0)
GPGPU-Sim uArch: Shader 11 finished CTA #5 (42194,0), 7 CTAs running
GPGPU-Sim uArch: core: 11, cta: 5 initialized @(42195,0)
GPGPU-Sim PTX: 14100000 instructions simulated : ctaid=(0,81,0) tid=(12,0,0)
GPGPU-Sim uArch: Shader 14 finished CTA #2 (42274,0), 7 CTAs running
GPGPU-Sim uArch: core: 14, cta: 2 initialized @(42275,0)
GPGPU-Sim uArch: Shader 8 finished CTA #1 (42288,0), 7 CTAs running
GPGPU-Sim uArch: core:  8, cta: 1 initialized @(42289,0)
GPGPU-Sim uArch: cycles simulated: 42500  inst.: 13349138 (ipc=314.1) sim_rate=370809 (inst/sec) elapsed = 0:0:00:36 / Fri Jan 16 05:14:46 2015
GPGPU-Sim PTX: 14200000 instructions simulated : ctaid=(3,83,0) tid=(11,0,0)
GPGPU-Sim uArch: Shader 0 finished CTA #4 (42585,0), 7 CTAs running
GPGPU-Sim uArch: core:  0, cta: 4 initialized @(42586,0)
GPGPU-Sim PTX: 14300000 instructions simulated : ctaid=(1,95,0) tid=(29,0,0)
GPGPU-Sim uArch: Shader 11 finished CTA #3 (43013,0), 7 CTAs running
GPGPU-Sim uArch: core: 11, cta: 3 initialized @(43014,0)
GPGPU-Sim uArch: Shader 7 finished CTA #2 (43037,0), 7 CTAs running
GPGPU-Sim uArch: core:  7, cta: 2 initialized @(43038,0)
GPGPU-Sim PTX: 14400000 instructions simulated : ctaid=(1,77,0) tid=(46,0,0)
GPGPU-Sim uArch: Shader 8 finished CTA #0 (43280,0), 7 CTAs running
GPGPU-Sim uArch: core:  8, cta: 0 initialized @(43281,0)
GPGPU-Sim uArch: Shader 12 finished CTA #2 (43284,0), 7 CTAs running
GPGPU-Sim uArch: core: 12, cta: 2 initialized @(43285,0)
GPGPU-Sim uArch: Shader 9 finished CTA #2 (43323,0), 7 CTAs running
GPGPU-Sim uArch: core:  9, cta: 2 initialized @(43324,0)
GPGPU-Sim uArch: cycles simulated: 43500  inst.: 13620132 (ipc=313.1) sim_rate=368111 (inst/sec) elapsed = 0:0:00:37 / Fri Jan 16 05:14:47 2015
GPGPU-Sim PTX: 14500000 instructions simulated : ctaid=(3,99,0) tid=(10,0,0)
GPGPU-Sim PTX: 14600000 instructions simulated : ctaid=(2,93,0) tid=(1,0,0)
GPGPU-Sim uArch: Shader 10 finished CTA #0 (44093,0), 7 CTAs running
GPGPU-Sim uArch: core: 10, cta: 0 initialized @(44094,0)
GPGPU-Sim uArch: Shader 7 finished CTA #5 (44135,0), 7 CTAs running
GPGPU-Sim uArch: core:  7, cta: 5 initialized @(44136,0)
GPGPU-Sim PTX: 14700000 instructions simulated : ctaid=(1,70,0) tid=(41,0,0)
GPGPU-Sim uArch: Shader 10 finished CTA #3 (44380,0), 7 CTAs running
GPGPU-Sim uArch: core: 10, cta: 3 initialized @(44381,0)
GPGPU-Sim uArch: cycles simulated: 44500  inst.: 13892618 (ipc=312.2) sim_rate=365595 (inst/sec) elapsed = 0:0:00:38 / Fri Jan 16 05:14:48 2015
GPGPU-Sim uArch: Shader 10 finished CTA #2 (44593,0), 7 CTAs running
GPGPU-Sim uArch: core: 10, cta: 2 initialized @(44594,0)
GPGPU-Sim PTX: 14800000 instructions simulated : ctaid=(1,96,0) tid=(25,0,0)
GPGPU-Sim PTX: 14900000 instructions simulated : ctaid=(2,95,0) tid=(7,0,0)
GPGPU-Sim uArch: Shader 13 finished CTA #5 (45096,0), 7 CTAs running
GPGPU-Sim uArch: core: 13, cta: 5 initialized @(45097,0)
GPGPU-Sim uArch: Shader 2 finished CTA #3 (45223,0), 7 CTAs running
GPGPU-Sim uArch: core:  2, cta: 3 initialized @(45224,0)
GPGPU-Sim uArch: Shader 12 finished CTA #7 (45385,0), 7 CTAs running
GPGPU-Sim uArch: core: 12, cta: 7 initialized @(45386,0)
GPGPU-Sim PTX: 15000000 instructions simulated : ctaid=(1,96,0) tid=(47,0,0)
GPGPU-Sim uArch: Shader 9 finished CTA #5 (45396,0), 7 CTAs running
[...]
gpgpu_stall_shd_mem[t_mem][mshr_rc] = 0
gpgpu_stall_shd_mem[t_mem][icnt_rc] = 0
gpgpu_stall_shd_mem[t_mem][data_port_stall] = 0
gpgpu_stall_shd_mem[s_mem][bk_conf] = 0
gpgpu_stall_shd_mem[gl_mem][bk_conf] = 0
gpgpu_stall_shd_mem[gl_mem][coal_stall] = 0
gpgpu_stall_shd_mem[gl_mem][data_port_stall] = 0
gpgpu_stall_shd_mem[g_mem_ld][mshr_rc] = 0
gpgpu_stall_shd_mem[g_mem_ld][icnt_rc] = 0
gpgpu_stall_shd_mem[g_mem_ld][wb_icnt_rc] = 0
gpgpu_stall_shd_mem[g_mem_ld][wb_rsrv_fail] = 0
gpgpu_stall_shd_mem[g_mem_st][mshr_rc] = 0
gpgpu_stall_shd_mem[g_mem_st][icnt_rc] = 0
gpgpu_stall_shd_mem[g_mem_st][wb_icnt_rc] = 0
gpgpu_stall_shd_mem[g_mem_st][wb_rsrv_fail] = 0
gpgpu_stall_shd_mem[l_mem_ld][mshr_rc] = 0
gpgpu_stall_shd_mem[l_mem_ld][icnt_rc] = 0
gpgpu_stall_shd_mem[l_mem_ld][wb_icnt_rc] = 0
gpgpu_stall_shd_mem[l_mem_ld][wb_rsrv_fail] = 0
gpgpu_stall_shd_mem[l_mem_st][mshr_rc] = 0
gpgpu_stall_shd_mem[l_mem_st][icnt_rc] = 0
gpgpu_stall_shd_mem[l_mem_ld][wb_icnt_rc] = 0
gpgpu_stall_shd_mem[l_mem_ld][wb_rsrv_fail] = 0
gpu_reg_bank_conflict_stalls = 0
Warp Occupancy Distribution:
Stall:268737	W0_Idle:118870	W0_Scoreboard:814599	W1:931606	W2:462826	W3:291726	W4:198174	W5:155342	W6:126384	W7:100656	W8:90064	W9:75408	W10:71312	W11:64768	W12:59856	W13:47008	W14:39632	W15:38016	W16:34624	W17:32736	W18:29936	W19:34912	W20:26224	W21:26800	W22:27920	W23:27312	W24:27328	W25:27616	W26:24672	W27:22160	W28:23824	W29:17904	W30:16752	W31:18592	W32:1101264
traffic_breakdown_coretomem[CONST_ACC_R] = 120 {8:15,}
traffic_breakdown_coretomem[GLOBAL_ACC_W] = 81920 {40:2048,}
traffic_breakdown_coretomem[INST_ACC_R] = 480 {8:60,}
traffic_breakdown_memtocore[CONST_ACC_R] = 1080 {72:15,}
traffic_breakdown_memtocore[GLOBAL_ACC_W] = 16384 {8:2048,}
traffic_breakdown_memtocore[INST_ACC_R] = 8160 {136:60,}
maxmrqlatency = 17 
maxdqlatency = 0 
maxmflatency = 278 
averagemflatency = 168 
max_icnt2mem_latency = 36 
max_icnt2sh_latency = 189325 
mrq_lat_table:1020 	1 	24 	4 	1 	0 	0 	0 	0 	0 	0 	0 	0 	0 	0 	0 	0 	0 	0 	0 	0 	0 	0 	0 	0 	0 	0 	0 	0 	0 	0 	0 	
dq_lat_table:0 	0 	0 	0 	0 	0 	0 	0 	0 	0 	0 	0 	0 	0 	0 	0 	0 	0 	0 	0 	0 	0 	0 	0 	0 	0 	0 	0 	0 	0 	0 	0 	
mf_lat_table:0 	0 	0 	0 	0 	0 	0 	2051 	12 	0 	0 	0 	0 	0 	0 	0 	0 	0 	0 	0 	0 	0 	0 	0 	0 	0 	0 	0 	0 	0 	0 	0 	
icnt2mem_lat_table:0 	0 	0 	2112 	8 	3 	0 	0 	0 	0 	0 	0 	0 	0 	0 	0 	0 	0 	0 	0 	0 	0 	0 	0 	
icnt2sh_lat_table:0 	0 	0 	2 	13 	0 	0 	0 	0 	0 	0 	58 	95 	94 	262 	331 	649 	559 	0 	0 	0 	0 	0 	0 	
mf_lat_pw_table:0 	0 	0 	0 	0 	0 	0 	362 	1 	0 	0 	0 	0 	0 	0 	0 	0 	0 	0 	0 	0 	0 	0 	0 	0 	0 	0 	0 	0 	0 	0 	0 	
maximum concurrent accesses to same row:
dram[0]:         1         0         0         0         0         0         0         0         0         0         0         0         0         0         0         0 
dram[1]:         0         0         0         0         0         0         0         0         0         0         0         0         0         0         0         0 
dram[2]:         0         0         0         0         0         0         0         0         0         0         0         0         0         0         0         0 
dram[3]:         0         0         0         0         0         0         0         0         0         0         0         0         0         0         0         0 
dram[4]:         0         0         0         0         0         0         0         0         0         0         0         0         0         0         0         0 
dram[5]:         0         0         0         0         0         0         0         0         0         0         0         0         0         0         0         0 
maximum service time to same row:
dram[0]:       338         0         0         0      2465      2522     24000     26829         0         0         0         0         0         0         0         0 
dram[1]:      1279         0         0         0      2460      2526     25018     27271         0         0         0         0         0         0         0         0 
dram[2]:         0         0         0         0      2449      2451     25081     27422         0         0         0         0         0         0         0         0 
dram[3]:         0         0         0         0      2482      2472     25265     28238         0         0         0         0         0         0         0         0 
dram[4]:         0         0         0         0      2494      2476     25790     28727         0         0         0         0         0         0         0         0 
dram[5]:         0         0         0         0      2507      2487     26835     28904         0         0         0         0         0         0         0         0 
average row accesses per activate:
dram[0]:  1.000000      -nan      -nan      -nan 22.000000 21.000000 65.000000 65.000000      -nan      -nan      -nan      -nan      -nan      -nan      -nan      -nan 
dram[1]:  2.000000      -nan      -nan      -nan 21.000000 21.000000 64.000000 64.000000      -nan      -nan      -nan      -nan      -nan      -nan      -nan      -nan 
dram[2]:      -nan      -nan      -nan      -nan 21.000000 26.000000 64.000000 64.000000      -nan      -nan      -nan      -nan      -nan      -nan      -nan      -nan 
dram[3]:      -nan      -nan      -nan      -nan 21.000000 26.000000 64.000000 64.000000      -nan      -nan      -nan      -nan      -nan      -nan      -nan      -nan 
dram[4]:      -nan      -nan      -nan      -nan 20.000000 26.000000 65.000000 66.000000      -nan      -nan      -nan      -nan      -nan      -nan      -nan      -nan 
dram[5]:      -nan      -nan      -nan      -nan 22.000000 25.000000 64.000000 64.000000      -nan      -nan      -nan      -nan      -nan      -nan      -nan      -nan 
average row locality = 1050/28 = 37.500000
number of total memory accesses made:
dram[0]:         0         0         0         0         0         0         0         0         0         0         0         0         0         0         0         0 
dram[1]:         0         0         0         0         0         0         0         0         0         0         0         0         0         0         0         0 
dram[2]:         0         0         0         0         0         0         0         0         0         0         0         0         0         0         0         0 
dram[3]:         0         0         0         0         0         0         0         0         0         0         0         0         0         0         0         0 
dram[4]:         0         0         0         0         0         0         0         0         0         0         0         0         0         0         0         0 
dram[5]:         0         0         0         0         0         0         0         0         0         0         0         0         0         0         0         0 
total accesses: 0
min_bank_accesses = 0!
min_chip_accesses = 0!
number of total read accesses:
dram[0]:         3         0         0         0        10        10        32        32         0         0         0         0         0         0         0         0 
dram[1]:         2         0         0         0        10        10        32        32         0         0         0         0         0         0         0         0 
dram[2]:         0         0         0         0        10        12        32        32         0         0         0         0         0         0         0         0 
dram[3]:         0         0         0         0        10        12        32        32         0         0         0         0         0         0         0         0 
dram[4]:         0         0         0         0        10        12        32        32         0         0         0         0         0         0         0         0 
dram[5]:         0         0         0         0        10        12        32        32         0         0         0         0         0         0         0         0 
total reads: 517
min_bank_accesses = 0!
chip skew: 87/86 = 1.01
number of total write accesses:
dram[0]:         0         0         0         0        12        11        33        33         0         0         0         0         0         0         0         0 
dram[1]:         0         0         0         0        11        11        32        32         0         0         0         0         0         0         0         0 
dram[2]:         0         0         0         0        11        14        32        32         0         0         0         0         0         0         0         0 
dram[3]:         0         0         0         0        11        14        32        32         0         0         0         0         0         0         0         0 
dram[4]:         0         0         0         0        10        14        33        34         0         0         0         0         0         0         0         0 
dram[5]:         0         0         0         0        12        13        32        32         0         0         0         0         0         0         0         0 
total reads: 533
min_bank_accesses = 0!
chip skew: 91/86 = 1.06
average mf latency per bank:
dram[0]:       1300    none      none      none         313       322       329       329    none      none      none      none      none      none      none      none  
dram[1]:          0    none      none      none         323       322       333       333    none      none      none      none      none      none      none      none  
dram[2]:     none      none      none      none         322       316       333       333    none      none      none      none      none      none      none      none  
dram[3]:     none      none      none      none         323       316       333       333    none      none      none      none      none      none      none      none  
dram[4]:     none      none      none      none         333       316       329       326    none      none      none      none      none      none      none      none  
dram[5]:     none      none      none      none         312       324       333       333    none      none      none      none      none      none      none      none  
maximum mf latency per bank:
dram[0]:        278         0         0         0       254       252       252       252         0         0         0         0         0         0         0         0
dram[1]:          0         0         0         0       255       252       252       252         0         0         0         0         0         0         0         0
dram[2]:          0         0         0         0       252       255       252       252         0         0         0         0         0         0         0         0
dram[3]:          0         0         0         0       262       252       252       251         0         0         0         0         0         0         0         0
dram[4]:          0         0         0         0       253       263       252       252         0         0         0         0         0         0         0         0
dram[5]:          0         0         0         0       252       252       251       258         0         0         0         0         0         0         0         0
Memory Partition 0: 
Cache L2_bank_000:
MSHR contents

Cache L2_bank_001:
MSHR contents

In Dram Latency Queue (total = 0): 
DRAM[0]: 16 bks, busW=4 BL=8 CL=12, tRRD=2 tCCD=6, tRCD=12 tRAS=28 tRP=12 tRC=40
n_cmd=249909 n_nop=249637 n_act=7 n_pre=2 n_req=176 n_rd=174 n_write=89 bw_util=0.002105
n_activity=2439 dram_eff=0.2157
bk0: 6a 249838i bk1: 0a 249908i bk2: 0a 249911i bk3: 0a 249911i bk4: 20a 249740i bk5: 20a 249756i bk6: 64a 249432i bk7: 64a 249429i bk8: 0a 249907i bk9: 0a 249907i bk10: 0a 249907i bk11: 0a 249908i bk12: 0a 249908i bk13: 0a 249908i bk14: 0a 249908i bk15: 0a 249910i 
dram_util_bins: 0 0 0 0 0 0 0 0 0 0
dram_eff_bins: 0 0 0 0 0 0 0 0 0 0
mrqq: max=1 avg=0.000116042
Memory Partition 1: 
Cache L2_bank_002:
MSHR contents

Cache L2_bank_003:
MSHR contents

In Dram Latency Queue (total = 0): 
DRAM[1]: 16 bks, busW=4 BL=8 CL=12, tRRD=2 tCCD=6, tRCD=12 tRAS=28 tRP=12 tRC=40
n_cmd=249909 n_nop=249646 n_act=5 n_pre=0 n_req=172 n_rd=172 n_write=86 bw_util=0.002065
n_activity=2317 dram_eff=0.2227
bk0: 4a 249890i bk1: 0a 249910i bk2: 0a 249910i bk3: 0a 249911i bk4: 20a 249743i bk5: 20a 249756i bk6: 64a 249428i bk7: 64a 249428i bk8: 0a 249907i bk9: 0a 249907i bk10: 0a 249907i bk11: 0a 249908i bk12: 0a 249908i bk13: 0a 249908i bk14: 0a 249909i bk15: 0a 249909i 
dram_util_bins: 0 0 0 0 0 0 0 0 0 0
dram_eff_bins: 0 0 0 0 0 0 0 0 0 0
mrqq: max=1 avg=0.000112041
Memory Partition 2: 
Cache L2_bank_004:
MSHR contents

Cache L2_bank_005:
MSHR contents

In Dram Latency Queue (total = 0): 
DRAM[2]: 16 bks, busW=4 BL=8 CL=12, tRRD=2 tCCD=6, tRCD=12 tRAS=28 tRP=12 tRC=40
n_cmd=249909 n_nop=249644 n_act=4 n_pre=0 n_req=175 n_rd=172 n_write=89 bw_util=0.002089
n_activity=2291 dram_eff=0.2278
bk0: 0a 249909i bk1: 0a 249910i bk2: 0a 249910i bk3: 0a 249910i bk4: 20a 249747i bk5: 24a 249714i bk6: 64a 249439i bk7: 64a 249437i bk8: 0a 249906i bk9: 0a 249907i bk10: 0a 249908i bk11: 0a 249909i bk12: 0a 249909i bk13: 0a 249909i bk14: 0a 249909i bk15: 0a 249909i 
dram_util_bins: 0 0 0 0 0 0 0 0 0 0
dram_eff_bins: 0 0 0 0 0 0 0 0 0 0
mrqq: max=2 avg=0.000128047
Memory Partition 3: 
Cache L2_bank_006:
MSHR contents

Cache L2_bank_007:
MSHR contents

In Dram Latency Queue (total = 0): 
DRAM[3]: 16 bks, busW=4 BL=8 CL=12, tRRD=2 tCCD=6, tRCD=12 tRAS=28 tRP=12 tRC=40
n_cmd=249909 n_nop=249644 n_act=4 n_pre=0 n_req=175 n_rd=172 n_write=89 bw_util=0.002089
n_activity=2292 dram_eff=0.2277
bk0: 0a 249909i bk1: 0a 249910i bk2: 0a 249912i bk3: 0a 249912i bk4: 20a 249744i bk5: 24a 249712i bk6: 64a 249430i bk7: 64a 249416i bk8: 0a 249906i bk9: 0a 249906i bk10: 0a 249906i bk11: 0a 249908i bk12: 0a 249909i bk13: 0a 249909i bk14: 0a 249909i bk15: 0a 249909i 
dram_util_bins: 0 0 0 0 0 0 0 0 0 0
dram_eff_bins: 0 0 0 0 0 0 0 0 0 0
mrqq: max=1 avg=0.000180066
Memory Partition 4: 
Cache L2_bank_008:
MSHR contents

Cache L2_bank_009:
MSHR contents

In Dram Latency Queue (total = 0): 
DRAM[4]: 16 bks, busW=4 BL=8 CL=12, tRRD=2 tCCD=6, tRCD=12 tRAS=28 tRP=12 tRC=40
n_cmd=249909 n_nop=249642 n_act=4 n_pre=0 n_req=177 n_rd=172 n_write=91 bw_util=0.002105
n_activity=2331 dram_eff=0.2257
bk0: 0a 249909i bk1: 0a 249911i bk2: 0a 249912i bk3: 0a 249912i bk4: 20a 249755i bk5: 24a 249713i bk6: 64a 249429i bk7: 64a 249424i bk8: 0a 249906i bk9: 0a 249906i bk10: 0a 249906i bk11: 0a 249908i bk12: 0a 249908i bk13: 0a 249909i bk14: 0a 249909i bk15: 0a 249909i 
dram_util_bins: 0 0 0 0 0 0 0 0 0 0
dram_eff_bins: 0 0 0 0 0 0 0 0 0 0
mrqq: max=2 avg=0.000252092
Memory Partition 5: 
Cache L2_bank_010:
MSHR contents

Cache L2_bank_011:
MSHR contents

In Dram Latency Queue (total = 0): 
DRAM[5]: 16 bks, busW=4 BL=8 CL=12, tRRD=2 tCCD=6, tRCD=12 tRAS=28 tRP=12 tRC=40
n_cmd=249909 n_nop=249644 n_act=4 n_pre=0 n_req=175 n_rd=172 n_write=89 bw_util=0.002089
n_activity=2311 dram_eff=0.2259
bk0: 0a 249909i bk1: 0a 249910i bk2: 0a 249912i bk3: 0a 249912i bk4: 20a 249756i bk5: 24a 249729i bk6: 64a 249433i bk7: 64a 249412i bk8: 0a 249906i bk9: 0a 249906i bk10: 0a 249906i bk11: 0a 249908i bk12: 0a 249909i bk13: 0a 249909i bk14: 0a 249909i bk15: 0a 249909i 
dram_util_bins: 0 0 0 0 0 0 0 0 0 0
dram_eff_bins: 0 0 0 0 0 0 0 0 0 0
mrqq: max=2 avg=0.000188068

========= L2 cache stats =========
L2_cache_bank[0]: Access = 213, Miss = 45, Miss_rate = 0.211, Pending_hits = 12, Reservation_fails = 342
L2_cache_bank[1]: Access = 168, Miss = 42, Miss_rate = 0.250, Pending_hits = 2, Reservation_fails = 0
L2_cache_bank[2]: Access = 198, Miss = 44, Miss_rate = 0.222, Pending_hits = 7, Reservation_fails = 174
L2_cache_bank[3]: Access = 168, Miss = 42, Miss_rate = 0.250, Pending_hits = 1, Reservation_fails = 0
L2_cache_bank[4]: Access = 168, Miss = 42, Miss_rate = 0.250, Pending_hits = 1, Reservation_fails = 0
L2_cache_bank[5]: Access = 176, Miss = 44, Miss_rate = 0.250, Pending_hits = 2, Reservation_fails = 0
L2_cache_bank[6]: Access = 168, Miss = 42, Miss_rate = 0.250, Pending_hits = 1, Reservation_fails = 0
L2_cache_bank[7]: Access = 176, Miss = 44, Miss_rate = 0.250, Pending_hits = 2, Reservation_fails = 0
L2_cache_bank[8]: Access = 168, Miss = 42, Miss_rate = 0.250, Pending_hits = 1, Reservation_fails = 0
L2_cache_bank[9]: Access = 176, Miss = 44, Miss_rate = 0.250, Pending_hits = 4, Reservation_fails = 0
L2_cache_bank[10]: Access = 168, Miss = 42, Miss_rate = 0.250, Pending_hits = 2, Reservation_fails = 0
L2_cache_bank[11]: Access = 176, Miss = 44, Miss_rate = 0.250, Pending_hits = 1, Reservation_fails = 0
L2_total_cache_accesses = 2123
L2_total_cache_misses = 517
L2_total_cache_miss_rate = 0.2435
L2_total_cache_pending_hits = 36
L2_total_cache_reservation_fails = 516
L2_total_cache_breakdown:
	L2_cache_stats_breakdown[CONST_ACC_R][HIT] = 11
	L2_cache_stats_breakdown[CONST_ACC_R][HIT_RESERVED] = 3
	L2_cache_stats_breakdown[CONST_ACC_R][MISS] = 1
	L2_cache_stats_breakdown[CONST_ACC_R][RESERVATION_FAIL] = 109
	L2_cache_stats_breakdown[GLOBAL_ACC_W][HIT] = 1515
	L2_cache_stats_breakdown[GLOBAL_ACC_W][HIT_RESERVED] = 21
	L2_cache_stats_breakdown[GLOBAL_ACC_W][MISS] = 512
	L2_cache_stats_breakdown[INST_ACC_R][HIT] = 44
	L2_cache_stats_breakdown[INST_ACC_R][HIT_RESERVED] = 12
	L2_cache_stats_breakdown[INST_ACC_R][MISS] = 4
	L2_cache_stats_breakdown[INST_ACC_R][RESERVATION_FAIL] = 407
L2_cache_data_port_util = 0.001
L2_cache_fill_port_util = 0.001

icnt_total_pkts_mem_to_simt=2393
icnt_total_pkts_simt_to_mem=4171
LD_mem_lat_dist  0 0 0 0 0 0 0 0 0 0 0 0 0 0 0 0 0 0 0 0 0 0 0 0 0 0 0
ST_mem_lat_dist  0 0 0 0 0 0 0 0 0 0 0 0 0 0 0 0 0 0 0 0 0 0 0 0 0 0 0
----------------------------Interconnect-DETAILS--------------------------------
Class 0:
Packet latency average = 6.74093
	minimum = 6
	maximum = 34
Network latency average = 6.6658
	minimum = 6
	maximum = 34
Slowest packet = 14
Flit latency average = 6.21785
	minimum = 6
	maximum = 34
Slowest flit = 14
Fragmentation average = 0
	minimum = 0
	maximum = 0
Injected packet rate average = 0.000830627
	minimum = 0.000691928 (at node 6)
	maximum = 0.00112504 (at node 15)
Accepted packet rate average = 0.000830627
	minimum = 0.000691928 (at node 6)
	maximum = 0.00112504 (at node 15)
Injected flit rate average = 0.00128409
	minimum = 0.000887358 (at node 16)
	maximum = 0.00191733 (at node 15)
Accepted flit rate average= 0.00128409
	minimum = 0.000787002 (at node 6)
	maximum = 0.0020124 (at node 15)
Injected packet length average = 1.54593
Accepted packet length average = 1.54593
Total in-flight flits = 0 (0 measured)
====== Overall Traffic Statistics ======
====== Traffic class 0 ======
Packet latency average = 6.74093 (1 samples)
	minimum = 6 (1 samples)
	maximum = 34 (1 samples)
Network latency average = 6.6658 (1 samples)
	minimum = 6 (1 samples)
	maximum = 34 (1 samples)
Flit latency average = 6.21785 (1 samples)
	minimum = 6 (1 samples)
	maximum = 34 (1 samples)
Fragmentation average = 0 (1 samples)
	minimum = 0 (1 samples)
	maximum = 0 (1 samples)
Injected packet rate average = 0.000830627 (1 samples)
	minimum = 0.000691928 (1 samples)
	maximum = 0.00112504 (1 samples)
Accepted packet rate average = 0.000830627 (1 samples)
	minimum = 0.000691928 (1 samples)
	maximum = 0.00112504 (1 samples)
Injected flit rate average = 0.00128409 (1 samples)
	minimum = 0.000887358 (1 samples)
	maximum = 0.00191733 (1 samples)
Accepted flit rate average = 0.00128409 (1 samples)
	minimum = 0.000787002 (1 samples)
	maximum = 0.0020124 (1 samples)
Injected packet size average = 1.54593 (1 samples)
Accepted packet size average = 1.54593 (1 samples)
Hops average = 1 (1 samples)
----------------------------END-of-Interconnect-DETAILS-------------------------


gpgpu_simulation_time = 0 days, 0 hrs, 2 min, 37 sec (157 sec)
gpgpu_simulation_rate = 334137 (inst/sec)
gpgpu_simulation_rate = 1205 (cycle/sec)
