

        *** GPGPU-Sim Simulator Version 3.2.2  [build 17315] ***


GPGPU-Sim PTX: simulation mode 0 (can change with PTX_SIM_MODE_FUNC environment variable:
               1=functional simulation only, 0=detailed performance simulator)
GPGPU-Sim: Configuration options:

-network_mode                           1 # Interconnection network mode
-inter_config_file   config_fermi_islip.icnt # Interconnection network config file
-gpgpu_ptx_use_cuobjdump                    1 # Use cuobjdump to extract ptx and sass from binaries
-gpgpu_experimental_lib_support                    0 # Try to extract code from cuda libraries [Broken because of unknown cudaGetExportTable]
-gpgpu_ptx_convert_to_ptxplus                    0 # Convert SASS (native ISA) to ptxplus and run ptxplus
-gpgpu_ptx_force_max_capability                   20 # Force maximum compute capability
-gpgpu_ptx_inst_debug_to_file                    0 # Dump executed instructions' debug information to file
-gpgpu_ptx_inst_debug_file       inst_debug.txt # Executed instructions' debug output file
-gpgpu_ptx_inst_debug_thread_uid                    1 # Thread UID for executed instructions' debug output
-gpgpu_simd_model                       1 # 1 = post-dominator
-gpgpu_shader_core_pipeline              1536:32 # shader core pipeline config, i.e., {<nthread>:<warpsize>}
-gpgpu_tex_cache:l1  4:128:24,L:R:m:N,F:128:4,128:2 # per-shader L1 texture cache  (READ-ONLY) config  {<nsets>:<bsize>:<assoc>,<rep>:<wr>:<alloc>:<wr_alloc>,<mshr>:<N>:<merge>,<mq>:<rf>}
-gpgpu_const_cache:l1 64:64:2,L:R:f:N,A:2:32,4 # per-shader L1 constant memory cache  (READ-ONLY) config  {<nsets>:<bsize>:<assoc>,<rep>:<wr>:<alloc>:<wr_alloc>,<mshr>:<N>:<merge>,<mq>} 
-gpgpu_cache:il1     4:128:4,L:R:f:N,A:2:32,4 # shader L1 instruction cache config  {<nsets>:<bsize>:<assoc>,<rep>:<wr>:<alloc>:<wr_alloc>,<mshr>:<N>:<merge>,<mq>} 
-gpgpu_cache:dl1     32:128:4,L:L:m:N,A:32:8,8 # per-shader L1 data cache config  {<nsets>:<bsize>:<assoc>,<rep>:<wr>:<alloc>:<wr_alloc>,<mshr>:<N>:<merge>,<mq> | none}
-gpgpu_cache:dl1PrefL1                 none # per-shader L1 data cache config  {<nsets>:<bsize>:<assoc>,<rep>:<wr>:<alloc>:<wr_alloc>,<mshr>:<N>:<merge>,<mq> | none}
-gpgpu_cache:dl1PreShared                 none # per-shader L1 data cache config  {<nsets>:<bsize>:<assoc>,<rep>:<wr>:<alloc>:<wr_alloc>,<mshr>:<N>:<merge>,<mq> | none}
-gmem_skip_L1D                          0 # global memory access skip L1D cache (implements -Xptxas -dlcm=cg, default=no skip)
-gpgpu_perfect_mem                      0 # enable perfect memory mode (no cache miss)
-n_regfile_gating_group                    4 # group of lanes that should be read/written together)
-gpgpu_clock_gated_reg_file                    0 # enable clock gated reg file for power calculations
-gpgpu_clock_gated_lanes                    0 # enable clock gated lanes for power calculations
-gpgpu_shader_registers                32768 # Number of registers per shader core. Limits number of concurrent CTAs. (default 8192)
-gpgpu_shader_cta                       8 # Maximum number of concurrent CTAs in shader (default 8)
-gpgpu_n_clusters                      15 # number of processing clusters
-gpgpu_n_cores_per_cluster                    1 # number of simd cores per cluster
-gpgpu_n_cluster_ejection_buffer_size                    8 # number of packets in ejection buffer
-gpgpu_n_ldst_response_buffer_size                    2 # number of response packets in ld/st unit ejection buffer
-gpgpu_shmem_size                   16384 # Size of shared memory per shader core (default 16kB)
-gpgpu_shmem_size                   49152 # Size of shared memory per shader core (default 16kB)
-gpgpu_shmem_size_PrefL1                16384 # Size of shared memory per shader core (default 16kB)
-gpgpu_shmem_size_PrefShared                16384 # Size of shared memory per shader core (default 16kB)
-gpgpu_shmem_num_banks                   32 # Number of banks in the shared memory in each shader core (default 16)
-gpgpu_shmem_limited_broadcast                    0 # Limit shared memory to do one broadcast per cycle (default on)
-gpgpu_shmem_warp_parts                    1 # Number of portions a warp is divided into for shared memory bank conflict check 
-gpgpu_warpdistro_shader                   -1 # Specify which shader core to collect the warp size distribution from
-gpgpu_warp_issue_shader                    0 # Specify which shader core to collect the warp issue distribution from
-gpgpu_local_mem_map                    1 # Mapping from local memory space address to simulated GPU physical address space (default = enabled)
-gpgpu_num_reg_banks                   16 # Number of register banks (default = 8)
-gpgpu_reg_bank_use_warp_id                    0 # Use warp ID in mapping registers to banks (default = off)
-gpgpu_operand_collector_num_units_sp                    6 # number of collector units (default = 4)
-gpgpu_operand_collector_num_units_sfu                    8 # number of collector units (default = 4)
-gpgpu_operand_collector_num_units_mem                    2 # number of collector units (default = 2)
-gpgpu_operand_collector_num_units_gen                    0 # number of collector units (default = 0)
-gpgpu_operand_collector_num_in_ports_sp                    2 # number of collector unit in ports (default = 1)
-gpgpu_operand_collector_num_in_ports_sfu                    1 # number of collector unit in ports (default = 1)
-gpgpu_operand_collector_num_in_ports_mem                    1 # number of collector unit in ports (default = 1)
-gpgpu_operand_collector_num_in_ports_gen                    0 # number of collector unit in ports (default = 0)
-gpgpu_operand_collector_num_out_ports_sp                    2 # number of collector unit in ports (default = 1)
-gpgpu_operand_collector_num_out_ports_sfu                    1 # number of collector unit in ports (default = 1)
-gpgpu_operand_collector_num_out_ports_mem                    1 # number of collector unit in ports (default = 1)
-gpgpu_operand_collector_num_out_ports_gen                    0 # number of collector unit in ports (default = 0)
-gpgpu_coalesce_arch                   13 # Coalescing arch (default = 13, anything else is off for now)
-gpgpu_num_sched_per_core                    2 # Number of warp schedulers per core
-gpgpu_max_insn_issue_per_warp                    1 # Max number of instructions that can be issued per warp in one cycle by scheduler
-gpgpu_simt_core_sim_order                    1 # Select the simulation order of cores in a cluster (0=Fix, 1=Round-Robin)
-gpgpu_pipeline_widths        2,1,1,2,1,1,2 # Pipeline widths ID_OC_SP,ID_OC_SFU,ID_OC_MEM,OC_EX_SP,OC_EX_SFU,OC_EX_MEM,EX_WB
-gpgpu_num_sp_units                     2 # Number of SP units (default=1)
-gpgpu_num_sfu_units                    1 # Number of SF units (default=1)
-gpgpu_num_mem_units                    1 # Number if ldst units (default=1) WARNING: not hooked up to anything
-gpgpu_scheduler                      gto # Scheduler configuration: < lrr | gto | two_level_active > If two_level_active:<num_active_warps>:<inner_prioritization>:<outer_prioritization>For complete list of prioritization values see shader.h enum scheduler_prioritization_typeDefault: gto
-gpgpu_dram_scheduler                    1 # 0 = fifo, 1 = FR-FCFS (defaul)
-gpgpu_dram_partition_queues              8:8:8:8 # i2$:$2d:d2$:$2i
-l2_ideal                               0 # Use a ideal L2 cache that always hit
-gpgpu_cache:dl2     64:128:8,L:B:m:W,A:32:4,4:0,32 # unified banked L2 data cache config  {<nsets>:<bsize>:<assoc>,<rep>:<wr>:<alloc>:<wr_alloc>,<mshr>:<N>:<merge>,<mq>}
-gpgpu_cache:dl2_texture_only                    0 # L2 cache used for texture only
-gpgpu_n_mem                            6 # number of memory modules (e.g. memory controllers) in gpu
-gpgpu_n_sub_partition_per_mchannel                    2 # number of memory subpartition in each memory module
-gpgpu_n_mem_per_ctrlr                    2 # number of memory chips per memory controller
-gpgpu_memlatency_stat                   14 # track and display latency statistics 0x2 enables MC, 0x4 enables queue logs
-gpgpu_frfcfs_dram_sched_queue_size                   16 # 0 = unlimited (default); # entries per chip
-gpgpu_dram_return_queue_size                  116 # 0 = unlimited (default); # entries per chip
-gpgpu_dram_buswidth                    4 # default = 4 bytes (8 bytes per cycle at DDR)
-gpgpu_dram_burst_length                    8 # Burst length of each DRAM request (default = 4 data bus cycle)
-dram_data_command_freq_ratio                    4 # Frequency ratio between DRAM data bus and command bus (default = 2 times, i.e. DDR)
-gpgpu_dram_timing_opt nbk=16:CCD=2:RRD=6:RCD=12:RAS=28:RP=12:RC=40: CL=12:WL=4:CDLR=5:WR=12:nbkgrp=4:CCDL=3:RTPL=2 # DRAM timing parameters = {nbk:tCCD:tRRD:tRCD:tRAS:tRP:tRC:CL:WL:tCDLR:tWR:nbkgrp:tCCDL:tRTPL}
-rop_latency                          120 # ROP queue latency (default 85)
-dram_latency                         100 # DRAM latency (default 30)
-gpgpu_mem_addr_mapping dramid@8;00000000.00000000.00000000.00000000.0000RRRR.RRRRRRRR.BBBCCCCB.CCSSSSSS # mapping memory address to dram model {dramid@<start bit>;<memory address map>}
-gpgpu_mem_addr_test                    0 # run sweep test to check address mapping for aliased address
-gpgpu_mem_address_mask                    1 # 0 = old addressing mask, 1 = new addressing mask, 2 = new add. mask + flipped bank sel and chip sel bits
-gpuwattch_xml_file         gpuwattch.xml # GPUWattch XML file
-power_simulation_enabled                    0 # Turn on power simulator (1=On, 0=Off)
-power_per_cycle_dump                    0 # Dump detailed power output each cycle
-power_trace_enabled                    0 # produce a file for the power trace (1=On, 0=Off)
-power_trace_zlevel                     6 # Compression level of the power trace output log (0=no comp, 9=highest)
-steady_power_levels_enabled                    0 # produce a file for the steady power levels (1=On, 0=Off)
-steady_state_definition                  8:4 # allowed deviation:number of samples
-gpgpu_max_cycle                        0 # terminates gpu simulation early (0 = no limit)
-gpgpu_max_insn                         0 # terminates gpu simulation early (0 = no limit)
-gpgpu_max_cta                          0 # terminates gpu simulation early (0 = no limit)
-gpgpu_runtime_stat                   500 # display runtime statistics such as dram utilization {<freq>:<flag>}
-liveness_message_freq                    1 # Minimum number of seconds between simulation liveness messages (0 = always print)
-gpgpu_flush_l1_cache                    0 # Flush L1 cache at the end of each kernel call
-gpgpu_flush_l2_cache                    0 # Flush L2 cache at the end of each kernel call
-gpgpu_deadlock_detect                    1 # Stop the simulation at deadlock (1=on (default), 0=off)
-gpgpu_ptx_instruction_classification                    0 # if enabled will classify ptx instruction types per kernel (Max 255 kernels now)
-gpgpu_ptx_sim_mode                     0 # Select between Performance (default) or Functional simulation (1)
-gpgpu_clock_domains 700.0:700.0:700.0:924.0 # Clock Domain Frequencies in MhZ {<Core Clock>:<ICNT Clock>:<L2 Clock>:<DRAM Clock>}
-gpgpu_max_concurrent_kernel                    8 # maximum kernels that can run concurrently on GPU
-gpgpu_cflog_interval                    0 # Interval between each snapshot in control flow logger
-visualizer_enabled                     0 # Turn on visualizer output (1=On, 0=Off)
-visualizer_outputfile                 NULL # Specifies the output log file for visualizer
-visualizer_zlevel                      6 # Compression level of the visualizer output log (0=no comp, 9=highest)
-trace_enabled                          0 # Turn on traces
-trace_components                    none # comma seperated list of traces to enable. Complete list found in trace_streams.tup. Default none
-trace_sampling_core                    0 # The core which is printed using CORE_DPRINTF. Default 0
-trace_sampling_memory_partition                   -1 # The memory partition which is printed using MEMPART_DPRINTF. Default -1 (i.e. all)
-enable_ptx_file_line_stats                    1 # Turn on PTX source line statistic profiling. (1 = On)
-ptx_line_stats_filename gpgpu_inst_stats.txt # Output file for PTX source line statistics.
-save_embedded_ptx                      0 # saves ptx files embedded in binary as <n>.ptx
-keep                                   0 # keep intermediate files created by GPGPU-Sim when interfacing with external programs
-gpgpu_ptx_save_converted_ptxplus                    0 # Saved converted ptxplus to a file
-ptx_opcode_latency_int         4,13,4,5,145 # Opcode latencies for integers <ADD,MAX,MUL,MAD,DIV>Default 1,1,19,25,145
-ptx_opcode_latency_fp          4,13,4,5,39 # Opcode latencies for single precision floating points <ADD,MAX,MUL,MAD,DIV>Default 1,1,1,1,30
-ptx_opcode_latency_dp         8,19,8,8,330 # Opcode latencies for double precision floating points <ADD,MAX,MUL,MAD,DIV>Default 8,8,8,8,335
-ptx_opcode_initiation_int            1,2,2,1,8 # Opcode initiation intervals for integers <ADD,MAX,MUL,MAD,DIV>Default 1,1,4,4,32
-ptx_opcode_initiation_fp            1,2,1,1,4 # Opcode initiation intervals for single precision floating points <ADD,MAX,MUL,MAD,DIV>Default 1,1,1,1,5
-ptx_opcode_initiation_dp         8,16,8,8,130 # Opcode initiation intervals for double precision floating points <ADD,MAX,MUL,MAD,DIV>Default 8,8,8,8,130
DRAM Timing Options:
nbk                                    16 # number of banks
CCD                                     2 # column to column delay
RRD                                     6 # minimal delay between activation of rows in different banks
RCD                                    12 # row to column delay
RAS                                    28 # time needed to activate row
RP                                     12 # time needed to precharge (deactivate) row
RC                                     40 # row cycle time
CDLR                                    5 # switching from write to read (changes tWTR)
WR                                     12 # last data-in to row precharge
CL                                     12 # CAS latency
WL                                      4 # Write latency
nbkgrp                                  4 # number of bank groups
CCDL                                    3 # column to column delay between accesses to different bank groups
RTPL                                    2 # read to precharge delay between accesses to different bank groups
Total number of memory sub partition = 12
addr_dec_mask[CHIP]  = 0000000000000000 	high:64 low:0
addr_dec_mask[BK]    = 000000000000e100 	high:16 low:8
addr_dec_mask[ROW]   = 000000000fff0000 	high:28 low:16
addr_dec_mask[COL]   = 0000000000001eff 	high:13 low:0
addr_dec_mask[BURST] = 000000000000003f 	high:6 low:0
sub_partition_id_mask = 0000000000000100
GPGPU-Sim uArch: clock freqs: 700000000.000000:700000000.000000:700000000.000000:924000000.000000
GPGPU-Sim uArch: clock periods: 0.00000000142857142857:0.00000000142857142857:0.00000000142857142857:0.00000000108225108225
*** Initializing Memory Statistics ***
GPGPU-Sim uArch: interconnect node map (shaderID+MemID to icntID)
GPGPU-Sim uArch: Memory nodes ID start from index: 15
GPGPU-Sim uArch:    0   1   2   3   4
GPGPU-Sim uArch:    5   6   7   8   9
GPGPU-Sim uArch:   10  11  12  13  14
GPGPU-Sim uArch:   15  16  17  18  19
GPGPU-Sim uArch:   20  21  22  23  24
GPGPU-Sim uArch:   25  26
GPGPU-Sim uArch: interconnect node reverse map (icntID to shaderID+MemID)
GPGPU-Sim uArch: Memory nodes start from ID: 15
GPGPU-Sim uArch:    0   1   2   3   4
GPGPU-Sim uArch:    5   6   7   8   9
GPGPU-Sim uArch:   10  11  12  13  14
GPGPU-Sim uArch:   15  16  17  18  19
GPGPU-Sim uArch:   20  21  22  23  24
GPGPU-Sim uArch:   25  26
35e4989e7e2383a1c0ff536b7ce586fc  /afs/tu-berlin.de/home/t/tobias.fuchs/irb-ubuntu/Dokumente/new4/MCS1415/CUDA/assignment1/gpumcs/gpu_out
GPGPU-Sim uArch: performance model initialization complete.
GPGPU-Sim PTX: __cudaRegisterFatBinary, fat_cubin_handle = 1, filename=gpu_julia.cu
self exe links to: /afs/tu-berlin.de/home/t/tobias.fuchs/irb-ubuntu/Dokumente/new4/MCS1415/CUDA/assignment1/gpumcs/gpu_out
Running md5sum using "md5sum /afs/tu-berlin.de/home/t/tobias.fuchs/irb-ubuntu/Dokumente/new4/MCS1415/CUDA/assignment1/gpumcs/gpu_out "
Running cuobjdump using "$CUDA_INSTALL_PATH/bin/cuobjdump -ptx -elf -sass /afs/tu-berlin.de/home/t/tobias.fuchs/irb-ubuntu/Dokumente/new4/MCS1415/CUDA/assignment1/gpumcs/gpu_out > _cuobjdump_complete_output_t9D6JU"
Parsing file _cuobjdump_complete_output_t9D6JU
######### cuobjdump parser ########
## Adding new section ELF
Adding arch: sm_10
Adding identifier: gpu_julia.cu
## Adding new section PTX
Adding ptx filename: _cuobjdump_1.ptx
Adding arch: sm_10
Adding identifier: gpu_julia.cu
Done parsing!!!
GPGPU-Sim PTX: __cudaRegisterFunction _Z12calc_fractaliiffPh : hostFun 0x0x401073, fat_cubin_handle = 1
GPGPU-Sim PTX: instruction assembly for function '_Z12calc_fractaliiffPh'...   done.
GPGPU-Sim PTX: finding reconvergence points for '_Z12calc_fractaliiffPh'...
GPGPU-Sim PTX: Finding dominators for '_Z12calc_fractaliiffPh'...
GPGPU-Sim PTX: Finding immediate dominators for '_Z12calc_fractaliiffPh'...
GPGPU-Sim PTX: Finding postdominators for '_Z12calc_fractaliiffPh'...
GPGPU-Sim PTX: Finding immediate postdominators for '_Z12calc_fractaliiffPh'...
GPGPU-Sim PTX: pre-decoding instructions for '_Z12calc_fractaliiffPh'...
GPGPU-Sim PTX: reconvergence points for _Z12calc_fractaliiffPh...
GPGPU-Sim PTX:  1 (potential) branch divergence @  PC=0x100 (_1.ptx:101) @%p1 bra $Lt_0_258;
GPGPU-Sim PTX:    immediate post dominator      @  PC=0x158 (_1.ptx:117) ld.param.s32 %r4, [__cudaparm__Z12calc_fractaliiffPh_width];
GPGPU-Sim PTX:  2 (potential) branch divergence @  PC=0x150 (_1.ptx:114) @%p2 bra $Lt_0_2306;
GPGPU-Sim PTX:    immediate post dominator      @  PC=0x158 (_1.ptx:117) ld.param.s32 %r4, [__cudaparm__Z12calc_fractaliiffPh_width];
GPGPU-Sim PTX: ... end of reconvergence points for _Z12calc_fractaliiffPh
GPGPU-Sim PTX: ... done pre-decoding instructions for '_Z12calc_fractaliiffPh'.
GPGPU-Sim PTX: finished parsing EMBEDDED .ptx file _1.ptx
Adding _cuobjdump_1.ptx with cubin handle 1
GPGPU-Sim PTX: extracting embedded .ptx to temporary file "_ptx_R123MM"
Running: cat _ptx_R123MM | sed 's/.version 1.5/.version 1.4/' | sed 's/, texmode_independent//' | sed 's/\(\.extern \.const\[1\] .b8 \w\+\)\[\]/\1\[1\]/' | sed 's/const\[.\]/const\[0\]/g' > _ptx2_5meBQE
GPGPU-Sim PTX: generating ptxinfo using "$CUDA_INSTALL_PATH/bin/ptxas --gpu-name=sm_20 -v _ptx2_5meBQE --output-file  /dev/null 2> _ptx_R123MMinfo"
GPGPU-Sim PTX: Kernel '_Z12calc_fractaliiffPh' : regs=9, lmem=0, smem=0, cmem=60
GPGPU-Sim PTX: removing ptxinfo using "rm -f _ptx_R123MM _ptx2_5meBQE _ptx_R123MMinfo"
GPGPU-Sim PTX: loading globals with explicit initializers... 
GPGPU-Sim PTX: finished loading globals (0 bytes total).
GPGPU-Sim PTX: loading constants with explicit initializers...  done.

GPGPU-Sim PTX: cudaLaunch for 0x0x401073 (mode=performance simulation) on stream 0
GPGPU-Sim PTX: pushing kernel '_Z12calc_fractaliiffPh' to stream 0, gridDim= (32,8,1) blockDim = (8,32,1) 
kernel '_Z12calc_fractaliiffPh' transfer to GPU hardware scheduler
GPGPU-Sim uArch: Shader 1 bind to kernel 1 '_Z12calc_fractaliiffPh'
GPGPU-Sim uArch: CTA/core = 6, limited by: threads
GPGPU-Sim uArch: core:  1, cta: 0 initialized @(1,0)
GPGPU-Sim uArch: Shader 2 bind to kernel 1 '_Z12calc_fractaliiffPh'
GPGPU-Sim uArch: core:  2, cta: 0 initialized @(1,0)
GPGPU-Sim uArch: Shader 3 bind to kernel 1 '_Z12calc_fractaliiffPh'
GPGPU-Sim uArch: core:  3, cta: 0 initialized @(1,0)
GPGPU-Sim uArch: Shader 4 bind to kernel 1 '_Z12calc_fractaliiffPh'
GPGPU-Sim uArch: core:  4, cta: 0 initialized @(1,0)
GPGPU-Sim uArch: Shader 5 bind to kernel 1 '_Z12calc_fractaliiffPh'
GPGPU-Sim uArch: core:  5, cta: 0 initialized @(1,0)
GPGPU-Sim uArch: Shader 6 bind to kernel 1 '_Z12calc_fractaliiffPh'
GPGPU-Sim uArch: core:  6, cta: 0 initialized @(1,0)
GPGPU-Sim uArch: Shader 7 bind to kernel 1 '_Z12calc_fractaliiffPh'
GPGPU-Sim uArch: core:  7, cta: 0 initialized @(1,0)
GPGPU-Sim uArch: Shader 8 bind to kernel 1 '_Z12calc_fractaliiffPh'
GPGPU-Sim uArch: core:  8, cta: 0 initialized @(1,0)
GPGPU-Sim uArch: Shader 9 bind to kernel 1 '_Z12calc_fractaliiffPh'
GPGPU-Sim uArch: core:  9, cta: 0 initialized @(1,0)
GPGPU-Sim uArch: Shader 10 bind to kernel 1 '_Z12calc_fractaliiffPh'
GPGPU-Sim uArch: core: 10, cta: 0 initialized @(1,0)
GPGPU-Sim uArch: Shader 11 bind to kernel 1 '_Z12calc_fractaliiffPh'
GPGPU-Sim uArch: core: 11, cta: 0 initialized @(1,0)
GPGPU-Sim uArch: Shader 12 bind to kernel 1 '_Z12calc_fractaliiffPh'
GPGPU-Sim uArch: core: 12, cta: 0 initialized @(1,0)
GPGPU-Sim uArch: Shader 13 bind to kernel 1 '_Z12calc_fractaliiffPh'
GPGPU-Sim uArch: core: 13, cta: 0 initialized @(1,0)
GPGPU-Sim uArch: Shader 14 bind to kernel 1 '_Z12calc_fractaliiffPh'
GPGPU-Sim uArch: core: 14, cta: 0 initialized @(1,0)
GPGPU-Sim uArch: Shader 0 bind to kernel 1 '_Z12calc_fractaliiffPh'
GPGPU-Sim uArch: core:  0, cta: 0 initialized @(1,0)
GPGPU-Sim uArch: core:  1, cta: 1 initialized @(2,0)
GPGPU-Sim uArch: core:  2, cta: 1 initialized @(2,0)
GPGPU-Sim uArch: core:  3, cta: 1 initialized @(2,0)
GPGPU-Sim uArch: core:  4, cta: 1 initialized @(2,0)
GPGPU-Sim uArch: core:  5, cta: 1 initialized @(2,0)
GPGPU-Sim uArch: core:  6, cta: 1 initialized @(2,0)
GPGPU-Sim uArch: core:  7, cta: 1 initialized @(2,0)
GPGPU-Sim uArch: core:  8, cta: 1 initialized @(2,0)
GPGPU-Sim uArch: core:  9, cta: 1 initialized @(2,0)
GPGPU-Sim uArch: core: 10, cta: 1 initialized @(2,0)
GPGPU-Sim uArch: core: 11, cta: 1 initialized @(2,0)
GPGPU-Sim uArch: core: 12, cta: 1 initialized @(2,0)
GPGPU-Sim uArch: core: 13, cta: 1 initialized @(2,0)
GPGPU-Sim uArch: core: 14, cta: 1 initialized @(2,0)
GPGPU-Sim uArch: core:  0, cta: 1 initialized @(2,0)
GPGPU-Sim uArch: core:  1, cta: 2 initialized @(3,0)
GPGPU-Sim uArch: core:  2, cta: 2 initialized @(3,0)
GPGPU-Sim uArch: core:  3, cta: 2 initialized @(3,0)
GPGPU-Sim uArch: core:  4, cta: 2 initialized @(3,0)
GPGPU-Sim uArch: core:  5, cta: 2 initialized @(3,0)
GPGPU-Sim uArch: core:  6, cta: 2 initialized @(3,0)
GPGPU-Sim uArch: core:  7, cta: 2 initialized @(3,0)
GPGPU-Sim uArch: core:  8, cta: 2 initialized @(3,0)
GPGPU-Sim uArch: core:  9, cta: 2 initialized @(3,0)
GPGPU-Sim uArch: core: 10, cta: 2 initialized @(3,0)
GPGPU-Sim uArch: core: 11, cta: 2 initialized @(3,0)
GPGPU-Sim uArch: core: 12, cta: 2 initialized @(3,0)
GPGPU-Sim uArch: core: 13, cta: 2 initialized @(3,0)
GPGPU-Sim uArch: core: 14, cta: 2 initialized @(3,0)
GPGPU-Sim uArch: core:  0, cta: 2 initialized @(3,0)
GPGPU-Sim uArch: core:  1, cta: 3 initialized @(4,0)
GPGPU-Sim uArch: core:  2, cta: 3 initialized @(4,0)
GPGPU-Sim uArch: core:  3, cta: 3 initialized @(4,0)
GPGPU-Sim uArch: core:  4, cta: 3 initialized @(4,0)
GPGPU-Sim uArch: core:  5, cta: 3 initialized @(4,0)
GPGPU-Sim uArch: core:  6, cta: 3 initialized @(4,0)
GPGPU-Sim uArch: core:  7, cta: 3 initialized @(4,0)
GPGPU-Sim uArch: core:  8, cta: 3 initialized @(4,0)
GPGPU-Sim uArch: core:  9, cta: 3 initialized @(4,0)
GPGPU-Sim uArch: core: 10, cta: 3 initialized @(4,0)
GPGPU-Sim uArch: core: 11, cta: 3 initialized @(4,0)
GPGPU-Sim uArch: core: 12, cta: 3 initialized @(4,0)
GPGPU-Sim uArch: core: 13, cta: 3 initialized @(4,0)
GPGPU-Sim uArch: core: 14, cta: 3 initialized @(4,0)
GPGPU-Sim uArch: core:  0, cta: 3 initialized @(4,0)
GPGPU-Sim uArch: core:  1, cta: 4 initialized @(5,0)
GPGPU-Sim uArch: core:  2, cta: 4 initialized @(5,0)
GPGPU-Sim uArch: core:  3, cta: 4 initialized @(5,0)
GPGPU-Sim uArch: core:  4, cta: 4 initialized @(5,0)
GPGPU-Sim uArch: core:  5, cta: 4 initialized @(5,0)
GPGPU-Sim uArch: core:  6, cta: 4 initialized @(5,0)
GPGPU-Sim uArch: core:  7, cta: 4 initialized @(5,0)
GPGPU-Sim uArch: core:  8, cta: 4 initialized @(5,0)
GPGPU-Sim uArch: core:  9, cta: 4 initialized @(5,0)
GPGPU-Sim uArch: core: 10, cta: 4 initialized @(5,0)
GPGPU-Sim uArch: core: 11, cta: 4 initialized @(5,0)
GPGPU-Sim uArch: core: 12, cta: 4 initialized @(5,0)
GPGPU-Sim uArch: core: 13, cta: 4 initialized @(5,0)
GPGPU-Sim uArch: core: 14, cta: 4 initialized @(5,0)
GPGPU-Sim uArch: core:  0, cta: 4 initialized @(5,0)
GPGPU-Sim uArch: core:  1, cta: 5 initialized @(6,0)
GPGPU-Sim uArch: core:  2, cta: 5 initialized @(6,0)
GPGPU-Sim uArch: core:  3, cta: 5 initialized @(6,0)
GPGPU-Sim uArch: core:  4, cta: 5 initialized @(6,0)
GPGPU-Sim uArch: core:  5, cta: 5 initialized @(6,0)
GPGPU-Sim uArch: core:  6, cta: 5 initialized @(6,0)
GPGPU-Sim uArch: core:  7, cta: 5 initialized @(6,0)
GPGPU-Sim uArch: core:  8, cta: 5 initialized @(6,0)
GPGPU-Sim uArch: core:  9, cta: 5 initialized @(6,0)
GPGPU-Sim uArch: core: 10, cta: 5 initialized @(6,0)
GPGPU-Sim uArch: core: 11, cta: 5 initialized @(6,0)
GPGPU-Sim uArch: core: 12, cta: 5 initialized @(6,0)
GPGPU-Sim uArch: core: 13, cta: 5 initialized @(6,0)
GPGPU-Sim uArch: core: 14, cta: 5 initialized @(6,0)
GPGPU-Sim uArch: core:  0, cta: 5 initialized @(6,0)
GPGPU-Sim PTX: 100000 instructions simulated : ctaid=(1,1,0) tid=(7,7,0)
GPGPU-Sim uArch: cycles simulated: 500  inst.: 137568 (ipc=275.1) sim_rate=137568 (inst/sec) elapsed = 0:0:00:01 / Fri Jan 16 05:30:04 2015
GPGPU-Sim PTX: 200000 instructions simulated : ctaid=(1,0,0) tid=(7,31,0)
GPGPU-Sim PTX: 300000 instructions simulated : ctaid=(1,0,0) tid=(7,31,0)
GPGPU-Sim uArch: cycles simulated: 1000  inst.: 365728 (ipc=365.7) sim_rate=182864 (inst/sec) elapsed = 0:0:00:02 / Fri Jan 16 05:30:05 2015
GPGPU-Sim PTX: 400000 instructions simulated : ctaid=(11,0,0) tid=(7,3,0)
GPGPU-Sim PTX: 500000 instructions simulated : ctaid=(14,2,0) tid=(7,27,0)
GPGPU-Sim PTX: 600000 instructions simulated : ctaid=(6,2,0) tid=(7,3,0)
GPGPU-Sim PTX: 700000 instructions simulated : ctaid=(22,1,0) tid=(7,7,0)
GPGPU-Sim PTX: 800000 instructions simulated : ctaid=(15,1,0) tid=(7,31,0)
GPGPU-Sim PTX: 900000 instructions simulated : ctaid=(10,1,0) tid=(7,27,0)
GPGPU-Sim PTX: 1000000 instructions simulated : ctaid=(4,0,0) tid=(7,19,0)
GPGPU-Sim uArch: cycles simulated: 2000  inst.: 1046944 (ipc=523.5) sim_rate=348981 (inst/sec) elapsed = 0:0:00:03 / Fri Jan 16 05:30:06 2015
GPGPU-Sim PTX: 1100000 instructions simulated : ctaid=(26,0,0) tid=(7,3,0)
GPGPU-Sim PTX: 1200000 instructions simulated : ctaid=(22,0,0) tid=(7,11,0)
GPGPU-Sim PTX: 1300000 instructions simulated : ctaid=(0,1,0) tid=(7,2,0)
GPGPU-Sim PTX: 1400000 instructions simulated : ctaid=(9,0,0) tid=(1,16,0)
GPGPU-Sim uArch: cycles simulated: 2500  inst.: 1431241 (ipc=572.5) sim_rate=357810 (inst/sec) elapsed = 0:0:00:04 / Fri Jan 16 05:30:07 2015
GPGPU-Sim PTX: 1500000 instructions simulated : ctaid=(8,0,0) tid=(6,21,0)
GPGPU-Sim PTX: 1600000 instructions simulated : ctaid=(6,0,0) tid=(6,28,0)
GPGPU-Sim PTX: 1700000 instructions simulated : ctaid=(16,0,0) tid=(4,2,0)
GPGPU-Sim PTX: 1800000 instructions simulated : ctaid=(14,0,0) tid=(5,27,0)
GPGPU-Sim PTX: 1900000 instructions simulated : ctaid=(15,0,0) tid=(6,24,0)
GPGPU-Sim uArch: Shader 1 finished CTA #0 (3041,0), 5 CTAs running
GPGPU-Sim uArch: core:  1, cta: 0 initialized @(3042,0)
GPGPU-Sim uArch: Shader 2 finished CTA #0 (3080,0), 5 CTAs running
GPGPU-Sim uArch: core:  2, cta: 0 initialized @(3081,0)
GPGPU-Sim PTX: 2000000 instructions simulated : ctaid=(28,0,0) tid=(1,10,0)
GPGPU-Sim PTX: 2100000 instructions simulated : ctaid=(5,0,0) tid=(6,23,0)
GPGPU-Sim PTX: 2200000 instructions simulated : ctaid=(23,0,0) tid=(3,2,0)
GPGPU-Sim uArch: cycles simulated: 3500  inst.: 2181451 (ipc=623.3) sim_rate=436290 (inst/sec) elapsed = 0:0:00:05 / Fri Jan 16 05:30:08 2015
GPGPU-Sim PTX: 2300000 instructions simulated : ctaid=(5,0,0) tid=(6,31,0)
GPGPU-Sim PTX: 2400000 instructions simulated : ctaid=(24,0,0) tid=(2,20,0)
GPGPU-Sim PTX: 2500000 instructions simulated : ctaid=(9,0,0) tid=(7,31,0)
GPGPU-Sim PTX: 2600000 instructions simulated : ctaid=(27,0,0) tid=(7,3,0)
GPGPU-Sim PTX: 2700000 instructions simulated : ctaid=(17,0,0) tid=(6,10,0)
GPGPU-Sim PTX: 2800000 instructions simulated : ctaid=(15,0,0) tid=(3,21,0)
GPGPU-Sim PTX: 2900000 instructions simulated : ctaid=(14,0,0) tid=(7,16,0)
GPGPU-Sim PTX: 3000000 instructions simulated : ctaid=(8,1,0) tid=(0,7,0)
GPGPU-Sim uArch: cycles simulated: 4500  inst.: 2905106 (ipc=645.6) sim_rate=484184 (inst/sec) elapsed = 0:0:00:06 / Fri Jan 16 05:30:09 2015
GPGPU-Sim PTX: 3100000 instructions simulated : ctaid=(31,0,0) tid=(5,8,0)
GPGPU-Sim PTX: 3200000 instructions simulated : ctaid=(16,1,0) tid=(7,2,0)
GPGPU-Sim PTX: 3300000 instructions simulated : ctaid=(14,0,0) tid=(5,0,0)
GPGPU-Sim PTX: 3400000 instructions simulated : ctaid=(4,0,0) tid=(4,22,0)
GPGPU-Sim uArch: cycles simulated: 5000  inst.: 3253291 (ipc=650.7) sim_rate=464755 (inst/sec) elapsed = 0:0:00:07 / Fri Jan 16 05:30:10 2015
GPGPU-Sim PTX: 3500000 instructions simulated : ctaid=(11,0,0) tid=(7,17,0)
GPGPU-Sim PTX: 3600000 instructions simulated : ctaid=(8,0,0) tid=(5,19,0)
GPGPU-Sim PTX: 3700000 instructions simulated : ctaid=(13,0,0) tid=(5,28,0)
GPGPU-Sim PTX: 3800000 instructions simulated : ctaid=(23,0,0) tid=(3,28,0)
GPGPU-Sim PTX: 3900000 instructions simulated : ctaid=(12,1,0) tid=(0,17,0)
GPGPU-Sim PTX: 4000000 instructions simulated : ctaid=(0,1,0) tid=(7,14,0)
GPGPU-Sim PTX: 4100000 instructions simulated : ctaid=(7,1,0) tid=(2,17,0)
GPGPU-Sim uArch: cycles simulated: 6000  inst.: 3914535 (ipc=652.4) sim_rate=489316 (inst/sec) elapsed = 0:0:00:08 / Fri Jan 16 05:30:11 2015
GPGPU-Sim PTX: 4200000 instructions simulated : ctaid=(10,1,0) tid=(0,14,0)
GPGPU-Sim PTX: 4300000 instructions simulated : ctaid=(7,1,0) tid=(3,8,0)
GPGPU-Sim uArch: Shader 10 finished CTA #1 (6232,0), 5 CTAs running
GPGPU-Sim uArch: core: 10, cta: 1 initialized @(6233,0)
GPGPU-Sim uArch: Shader 9 finished CTA #1 (6257,0), 5 CTAs running
GPGPU-Sim uArch: core:  9, cta: 1 initialized @(6258,0)
GPGPU-Sim PTX: 4400000 instructions simulated : ctaid=(25,1,0) tid=(2,7,0)
GPGPU-Sim PTX: 4500000 instructions simulated : ctaid=(22,1,0) tid=(3,14,0)
GPGPU-Sim uArch: Shader 11 finished CTA #1 (6521,0), 5 CTAs running
GPGPU-Sim uArch: core: 11, cta: 1 initialized @(6522,0)
GPGPU-Sim uArch: Shader 6 finished CTA #1 (6620,0), 5 CTAs running
GPGPU-Sim uArch: core:  6, cta: 1 initialized @(6621,0)
GPGPU-Sim PTX: 4600000 instructions simulated : ctaid=(22,1,0) tid=(1,0,0)
GPGPU-Sim uArch: Shader 12 finished CTA #1 (6685,0), 5 CTAs running
GPGPU-Sim uArch: core: 12, cta: 1 initialized @(6686,0)
GPGPU-Sim uArch: Shader 13 finished CTA #1 (6780,0), 5 CTAs running
GPGPU-Sim uArch: core: 13, cta: 1 initialized @(6781,0)
GPGPU-Sim PTX: 4700000 instructions simulated : ctaid=(3,1,0) tid=(7,15,0)
GPGPU-Sim uArch: Shader 0 finished CTA #1 (6904,0), 5 CTAs running
GPGPU-Sim uArch: core:  0, cta: 1 initialized @(6905,0)
GPGPU-Sim uArch: Shader 5 finished CTA #1 (6916,0), 5 CTAs running
GPGPU-Sim uArch: Shader 8 finished CTA #1 (6916,0), 5 CTAs running
GPGPU-Sim uArch: core:  5, cta: 1 initialized @(6917,0)
GPGPU-Sim uArch: core:  8, cta: 1 initialized @(6917,0)
GPGPU-Sim PTX: 4800000 instructions simulated : ctaid=(3,0,0) tid=(0,22,0)
GPGPU-Sim uArch: cycles simulated: 7000  inst.: 4557841 (ipc=651.1) sim_rate=506426 (inst/sec) elapsed = 0:0:00:09 / Fri Jan 16 05:30:12 2015
GPGPU-Sim uArch: Shader 7 finished CTA #1 (7031,0), 5 CTAs running
GPGPU-Sim uArch: core:  7, cta: 1 initialized @(7032,0)
GPGPU-Sim uArch: Shader 14 finished CTA #1 (7087,0), 5 CTAs running
GPGPU-Sim uArch: core: 14, cta: 1 initialized @(7088,0)
GPGPU-Sim PTX: 4900000 instructions simulated : ctaid=(2,1,0) tid=(5,27,0)
GPGPU-Sim PTX: 5000000 instructions simulated : ctaid=(4,1,0) tid=(3,22,0)
GPGPU-Sim PTX: 5100000 instructions simulated : ctaid=(11,0,0) tid=(3,7,0)
GPGPU-Sim uArch: cycles simulated: 7500  inst.: 4859424 (ipc=647.9) sim_rate=485942 (inst/sec) elapsed = 0:0:00:10 / Fri Jan 16 05:30:13 2015
GPGPU-Sim PTX: 5200000 instructions simulated : ctaid=(17,0,0) tid=(3,29,0)
GPGPU-Sim PTX: 5300000 instructions simulated : ctaid=(3,1,0) tid=(4,23,0)
GPGPU-Sim uArch: Shader 1 finished CTA #2 (7766,0), 5 CTAs running
GPGPU-Sim uArch: core:  1, cta: 2 initialized @(7767,0)
GPGPU-Sim PTX: 5400000 instructions simulated : ctaid=(14,0,0) tid=(2,8,0)
GPGPU-Sim PTX: 5500000 instructions simulated : ctaid=(23,1,0) tid=(4,18,0)
GPGPU-Sim uArch: Shader 2 finished CTA #2 (8155,0), 5 CTAs running
GPGPU-Sim uArch: core:  2, cta: 2 initialized @(8156,0)
GPGPU-Sim PTX: 5600000 instructions simulated : ctaid=(16,1,0) tid=(0,5,0)
GPGPU-Sim PTX: 5700000 instructions simulated : ctaid=(12,1,0) tid=(4,28,0)
GPGPU-Sim uArch: Shader 10 finished CTA #2 (8448,0), 5 CTAs running
GPGPU-Sim uArch: core: 10, cta: 2 initialized @(8449,0)
GPGPU-Sim uArch: cycles simulated: 8500  inst.: 5431978 (ipc=639.1) sim_rate=493816 (inst/sec) elapsed = 0:0:00:11 / Fri Jan 16 05:30:14 2015
GPGPU-Sim PTX: 5800000 instructions simulated : ctaid=(11,0,0) tid=(0,2,0)
GPGPU-Sim PTX: 5900000 instructions simulated : ctaid=(26,1,0) tid=(7,7,0)
GPGPU-Sim PTX: 6000000 instructions simulated : ctaid=(19,1,0) tid=(0,14,0)
GPGPU-Sim uArch: Shader 11 finished CTA #2 (9005,0), 5 CTAs running
GPGPU-Sim uArch: core: 11, cta: 2 initialized @(9006,0)
GPGPU-Sim PTX: 6100000 instructions simulated : ctaid=(26,1,0) tid=(3,7,0)
GPGPU-Sim PTX: 6200000 instructions simulated : ctaid=(9,2,0) tid=(1,10,0)
GPGPU-Sim uArch: Shader 9 finished CTA #2 (9356,0), 5 CTAs running
GPGPU-Sim uArch: core:  9, cta: 2 initialized @(9357,0)
GPGPU-Sim PTX: 6300000 instructions simulated : ctaid=(4,2,0) tid=(5,19,0)
GPGPU-Sim uArch: cycles simulated: 9500  inst.: 5960068 (ipc=627.4) sim_rate=496672 (inst/sec) elapsed = 0:0:00:12 / Fri Jan 16 05:30:15 2015
GPGPU-Sim PTX: 6400000 instructions simulated : ctaid=(6,0,0) tid=(2,10,0)
GPGPU-Sim PTX: 6500000 instructions simulated : ctaid=(2,1,0) tid=(6,6,0)
GPGPU-Sim PTX: 6600000 instructions simulated : ctaid=(24,2,0) tid=(3,2,0)
GPGPU-Sim uArch: Shader 12 finished CTA #2 (10073,0), 5 CTAs running
GPGPU-Sim uArch: core: 12, cta: 2 initialized @(10074,0)
GPGPU-Sim uArch: Shader 13 finished CTA #2 (10200,0), 5 CTAs running
GPGPU-Sim uArch: core: 13, cta: 2 initialized @(10201,0)
GPGPU-Sim PTX: 6700000 instructions simulated : ctaid=(15,1,0) tid=(0,10,0)
GPGPU-Sim PTX: 6800000 instructions simulated : ctaid=(21,1,0) tid=(5,29,0)
GPGPU-Sim uArch: cycles simulated: 10500  inst.: 6443924 (ipc=613.7) sim_rate=495686 (inst/sec) elapsed = 0:0:00:13 / Fri Jan 16 05:30:16 2015
GPGPU-Sim PTX: 6900000 instructions simulated : ctaid=(16,0,0) tid=(0,12,0)
GPGPU-Sim uArch: Shader 14 finished CTA #2 (10732,0), 5 CTAs running
GPGPU-Sim uArch: core: 14, cta: 2 initialized @(10733,0)
GPGPU-Sim uArch: Shader 10 finished CTA #3 (10821,0), 5 CTAs running
GPGPU-Sim uArch: core: 10, cta: 3 initialized @(10822,0)
GPGPU-Sim PTX: 7000000 instructions simulated : ctaid=(13,1,0) tid=(2,28,0)
GPGPU-Sim uArch: cycles simulated: 11000  inst.: 6682821 (ipc=607.5) sim_rate=477344 (inst/sec) elapsed = 0:0:00:14 / Fri Jan 16 05:30:17 2015
GPGPU-Sim PTX: 7100000 instructions simulated : ctaid=(18,1,0) tid=(2,9,0)
GPGPU-Sim PTX: 7200000 instructions simulated : ctaid=(2,1,0) tid=(7,5,0)
GPGPU-Sim uArch: Shader 11 finished CTA #3 (11383,0), 5 CTAs running
GPGPU-Sim uArch: core: 11, cta: 3 initialized @(11384,0)
GPGPU-Sim PTX: 7300000 instructions simulated : ctaid=(4,2,0) tid=(0,16,0)
GPGPU-Sim PTX: 7400000 instructions simulated : ctaid=(13,1,0) tid=(0,30,0)
GPGPU-Sim PTX: 7500000 instructions simulated : ctaid=(7,2,0) tid=(2,17,0)
GPGPU-Sim uArch: Shader 0 finished CTA #2 (11952,0), 5 CTAs running
GPGPU-Sim uArch: core:  0, cta: 2 initialized @(11953,0)
GPGPU-Sim uArch: cycles simulated: 12000  inst.: 7128535 (ipc=594.0) sim_rate=475235 (inst/sec) elapsed = 0:0:00:15 / Fri Jan 16 05:30:18 2015
GPGPU-Sim PTX: 7600000 instructions simulated : ctaid=(6,2,0) tid=(0,23,0)
GPGPU-Sim PTX: 7700000 instructions simulated : ctaid=(4,0,0) tid=(1,20,0)
GPGPU-Sim uArch: Shader 9 finished CTA #3 (12520,0), 5 CTAs running
GPGPU-Sim uArch: core:  9, cta: 3 initialized @(12521,0)
GPGPU-Sim PTX: 7800000 instructions simulated : ctaid=(5,2,0) tid=(1,10,0)
GPGPU-Sim PTX: 7900000 instructions simulated : ctaid=(20,2,0) tid=(1,10,0)
GPGPU-Sim uArch: Shader 12 finished CTA #3 (12912,0), 5 CTAs running
GPGPU-Sim uArch: core: 12, cta: 3 initialized @(12913,0)
GPGPU-Sim PTX: 8000000 instructions simulated : ctaid=(3,2,0) tid=(7,2,0)
GPGPU-Sim uArch: cycles simulated: 13000  inst.: 7550333 (ipc=580.8) sim_rate=471895 (inst/sec) elapsed = 0:0:00:16 / Fri Jan 16 05:30:19 2015
GPGPU-Sim PTX: 8100000 instructions simulated : ctaid=(7,2,0) tid=(2,25,0)
GPGPU-Sim uArch: Shader 13 finished CTA #3 (13317,0), 5 CTAs running
GPGPU-Sim uArch: core: 13, cta: 3 initialized @(13318,0)
GPGPU-Sim PTX: 8200000 instructions simulated : ctaid=(20,2,0) tid=(6,1,0)
GPGPU-Sim PTX: 8300000 instructions simulated : ctaid=(5,0,0) tid=(1,13,0)
GPGPU-Sim uArch: Shader 14 finished CTA #3 (13729,0), 5 CTAs running
GPGPU-Sim uArch: core: 14, cta: 3 initialized @(13730,0)
GPGPU-Sim PTX: 8400000 instructions simulated : ctaid=(17,1,0) tid=(5,5,0)
GPGPU-Sim uArch: cycles simulated: 14000  inst.: 7952106 (ipc=568.0) sim_rate=467770 (inst/sec) elapsed = 0:0:00:17 / Fri Jan 16 05:30:20 2015
GPGPU-Sim PTX: 8500000 instructions simulated : ctaid=(16,0,0) tid=(0,10,0)
GPGPU-Sim PTX: 8600000 instructions simulated : ctaid=(11,0,0) tid=(3,0,0)
GPGPU-Sim PTX: 8700000 instructions simulated : ctaid=(17,0,0) tid=(5,29,0)
GPGPU-Sim PTX: 8800000 instructions simulated : ctaid=(21,2,0) tid=(6,27,0)
GPGPU-Sim uArch: cycles simulated: 15000  inst.: 8332724 (ipc=555.5) sim_rate=462929 (inst/sec) elapsed = 0:0:00:18 / Fri Jan 16 05:30:21 2015
GPGPU-Sim PTX: 8900000 instructions simulated : ctaid=(3,1,0) tid=(3,30,0)
GPGPU-Sim PTX: 9000000 instructions simulated : ctaid=(1,3,0) tid=(6,1,0)
GPGPU-Sim PTX: 9100000 instructions simulated : ctaid=(4,2,0) tid=(5,20,0)
GPGPU-Sim PTX: 9200000 instructions simulated : ctaid=(11,0,0) tid=(5,5,0)
GPGPU-Sim PTX: 9300000 instructions simulated : ctaid=(16,1,0) tid=(0,19,0)
GPGPU-Sim uArch: Shader 0 finished CTA #3 (16352,0), 5 CTAs running
GPGPU-Sim uArch: core:  0, cta: 3 initialized @(16353,0)
GPGPU-Sim PTX: 9400000 instructions simulated : ctaid=(10,2,0) tid=(5,13,0)
GPGPU-Sim uArch: cycles simulated: 16500  inst.: 8863324 (ipc=537.2) sim_rate=466490 (inst/sec) elapsed = 0:0:00:19 / Fri Jan 16 05:30:22 2015
GPGPU-Sim PTX: 9500000 instructions simulated : ctaid=(18,1,0) tid=(1,7,0)
GPGPU-Sim PTX: 9600000 instructions simulated : ctaid=(6,3,0) tid=(1,12,0)
GPGPU-Sim uArch: Shader 6 finished CTA #0 (17280,0), 5 CTAs running
GPGPU-Sim uArch: core:  6, cta: 0 initialized @(17281,0)
GPGPU-Sim PTX: 9700000 instructions simulated : ctaid=(20,2,0) tid=(5,1,0)
GPGPU-Sim uArch: Shader 1 finished CTA #4 (17336,0), 5 CTAs running
GPGPU-Sim uArch: core:  1, cta: 4 initialized @(17337,0)
GPGPU-Sim uArch: cycles simulated: 17500  inst.: 9200332 (ipc=525.7) sim_rate=460016 (inst/sec) elapsed = 0:0:00:20 / Fri Jan 16 05:30:23 2015
GPGPU-Sim PTX: 9800000 instructions simulated : ctaid=(23,2,0) tid=(5,5,0)
GPGPU-Sim uArch: Shader 10 finished CTA #0 (17680,0), 5 CTAs running
GPGPU-Sim uArch: core: 10, cta: 0 initialized @(17681,0)
GPGPU-Sim PTX: 9900000 instructions simulated : ctaid=(29,1,0) tid=(6,5,0)
GPGPU-Sim PTX: 10000000 instructions simulated : ctaid=(9,2,0) tid=(1,28,0)
GPGPU-Sim PTX: 10100000 instructions simulated : ctaid=(22,2,0) tid=(0,16,0)
GPGPU-Sim uArch: cycles simulated: 18500  inst.: 9528395 (ipc=515.0) sim_rate=453733 (inst/sec) elapsed = 0:0:00:21 / Fri Jan 16 05:30:24 2015
GPGPU-Sim PTX: 10200000 instructions simulated : ctaid=(0,3,0) tid=(7,4,0)
GPGPU-Sim PTX: 10300000 instructions simulated : ctaid=(12,2,0) tid=(4,19,0)
GPGPU-Sim PTX: 10400000 instructions simulated : ctaid=(12,2,0) tid=(7,0,0)
GPGPU-Sim uArch: cycles simulated: 19500  inst.: 9831347 (ipc=504.2) sim_rate=446879 (inst/sec) elapsed = 0:0:00:22 / Fri Jan 16 05:30:25 2015
GPGPU-Sim PTX: 10500000 instructions simulated : ctaid=(19,1,0) tid=(1,29,0)
GPGPU-Sim PTX: 10600000 instructions simulated : ctaid=(12,2,0) tid=(0,1,0)
GPGPU-Sim PTX: 10700000 instructions simulated : ctaid=(17,2,0) tid=(1,0,0)
GPGPU-Sim uArch: cycles simulated: 20500  inst.: 10125336 (ipc=493.9) sim_rate=440232 (inst/sec) elapsed = 0:0:00:23 / Fri Jan 16 05:30:26 2015
GPGPU-Sim PTX: 10800000 instructions simulated : ctaid=(22,2,0) tid=(0,28,0)
GPGPU-Sim PTX: 10900000 instructions simulated : ctaid=(7,3,0) tid=(7,8,0)
GPGPU-Sim uArch: Shader 1 finished CTA #3 (21125,0), 5 CTAs running
GPGPU-Sim uArch: core:  1, cta: 3 initialized @(21126,0)
GPGPU-Sim PTX: 11000000 instructions simulated : ctaid=(29,2,0) tid=(7,19,0)
GPGPU-Sim uArch: cycles simulated: 21500  inst.: 10440433 (ipc=485.6) sim_rate=435018 (inst/sec) elapsed = 0:0:00:24 / Fri Jan 16 05:30:27 2015
GPGPU-Sim PTX: 11100000 instructions simulated : ctaid=(23,2,0) tid=(6,21,0)
GPGPU-Sim PTX: 11200000 instructions simulated : ctaid=(28,2,0) tid=(6,25,0)
GPGPU-Sim uArch: Shader 4 finished CTA #1 (22118,0), 5 CTAs running
GPGPU-Sim uArch: core:  4, cta: 1 initialized @(22119,0)
GPGPU-Sim PTX: 11300000 instructions simulated : ctaid=(2,2,0) tid=(5,19,0)
GPGPU-Sim PTX: 11400000 instructions simulated : ctaid=(2,3,0) tid=(0,3,0)
GPGPU-Sim PTX: 11500000 instructions simulated : ctaid=(2,2,0) tid=(3,5,0)
GPGPU-Sim uArch: cycles simulated: 23000  inst.: 10904772 (ipc=474.1) sim_rate=436190 (inst/sec) elapsed = 0:0:00:25 / Fri Jan 16 05:30:28 2015
GPGPU-Sim PTX: 11600000 instructions simulated : ctaid=(13,2,0) tid=(1,25,0)
GPGPU-Sim uArch: Shader 14 finished CTA #0 (23274,0), 5 CTAs running
GPGPU-Sim uArch: core: 14, cta: 0 initialized @(23275,0)
GPGPU-Sim PTX: 11700000 instructions simulated : ctaid=(28,2,0) tid=(6,16,0)
GPGPU-Sim PTX: 11800000 instructions simulated : ctaid=(27,3,0) tid=(5,10,0)
GPGPU-Sim PTX: 11900000 instructions simulated : ctaid=(25,2,0) tid=(5,27,0)
GPGPU-Sim uArch: cycles simulated: 24000  inst.: 11230144 (ipc=467.9) sim_rate=431928 (inst/sec) elapsed = 0:0:00:26 / Fri Jan 16 05:30:29 2015
GPGPU-Sim uArch: Shader 8 finished CTA #0 (24231,0), 5 CTAs running
GPGPU-Sim uArch: core:  8, cta: 0 initialized @(24232,0)
GPGPU-Sim PTX: 12000000 instructions simulated : ctaid=(7,3,0) tid=(1,14,0)
GPGPU-Sim PTX: 12100000 instructions simulated : ctaid=(13,2,0) tid=(5,11,0)
GPGPU-Sim PTX: 12200000 instructions simulated : ctaid=(7,3,0) tid=(3,3,0)
GPGPU-Sim uArch: Shader 8 finished CTA #2 (24812,0), 5 CTAs running
GPGPU-Sim uArch: core:  8, cta: 2 initialized @(24813,0)
GPGPU-Sim uArch: cycles simulated: 25000  inst.: 11565929 (ipc=462.6) sim_rate=428367 (inst/sec) elapsed = 0:0:00:27 / Fri Jan 16 05:30:30 2015
GPGPU-Sim PTX: 12300000 instructions simulated : ctaid=(17,2,0) tid=(3,18,0)
GPGPU-Sim PTX: 12400000 instructions simulated : ctaid=(9,3,0) tid=(2,6,0)
GPGPU-Sim uArch: Shader 3 finished CTA #0 (25604,0), 5 CTAs running
GPGPU-Sim uArch: core:  3, cta: 0 initialized @(25605,0)
GPGPU-Sim PTX: 12500000 instructions simulated : ctaid=(23,2,0) tid=(6,28,0)
GPGPU-Sim PTX: 12600000 instructions simulated : ctaid=(27,2,0) tid=(1,16,0)
GPGPU-Sim uArch: cycles simulated: 26000  inst.: 11911612 (ipc=458.1) sim_rate=425414 (inst/sec) elapsed = 0:0:00:28 / Fri Jan 16 05:30:31 2015
GPGPU-Sim uArch: Shader 2 finished CTA #4 (26081,0), 5 CTAs running
GPGPU-Sim uArch: core:  2, cta: 4 initialized @(26082,0)
GPGPU-Sim PTX: 12700000 instructions simulated : ctaid=(9,3,0) tid=(2,9,0)
GPGPU-Sim uArch: Shader 3 finished CTA #1 (26209,0), 5 CTAs running
GPGPU-Sim uArch: core:  3, cta: 1 initialized @(26210,0)
GPGPU-Sim PTX: 12800000 instructions simulated : ctaid=(2,2,0) tid=(5,25,0)
GPGPU-Sim PTX: 12900000 instructions simulated : ctaid=(1,3,0) tid=(6,21,0)
GPGPU-Sim uArch: Shader 7 finished CTA #0 (26717,0), 5 CTAs running
GPGPU-Sim uArch: core:  7, cta: 0 initialized @(26718,0)
GPGPU-Sim PTX: 13000000 instructions simulated : ctaid=(0,2,0) tid=(4,23,0)
GPGPU-Sim uArch: Shader 9 finished CTA #0 (26958,0), 5 CTAs running
GPGPU-Sim uArch: core:  9, cta: 0 initialized @(26959,0)
GPGPU-Sim uArch: cycles simulated: 27000  inst.: 12265913 (ipc=454.3) sim_rate=422962 (inst/sec) elapsed = 0:0:00:29 / Fri Jan 16 05:30:32 2015
GPGPU-Sim uArch: Shader 11 finished CTA #0 (27008,0), 5 CTAs running
GPGPU-Sim uArch: core: 11, cta: 0 initialized @(27009,0)
GPGPU-Sim PTX: 13100000 instructions simulated : ctaid=(19,1,0) tid=(0,29,0)
GPGPU-Sim PTX: 13200000 instructions simulated : ctaid=(11,3,0) tid=(1,1,0)
GPGPU-Sim PTX: 13300000 instructions simulated : ctaid=(15,2,0) tid=(1,1,0)
GPGPU-Sim PTX: 13400000 instructions simulated : ctaid=(14,3,0) tid=(7,18,0)
GPGPU-Sim uArch: cycles simulated: 28000  inst.: 12629030 (ipc=451.0) sim_rate=420967 (inst/sec) elapsed = 0:0:00:30 / Fri Jan 16 05:30:33 2015
GPGPU-Sim PTX: 13500000 instructions simulated : ctaid=(0,3,0) tid=(5,8,0)
GPGPU-Sim PTX: 13600000 instructions simulated : ctaid=(18,1,0) tid=(0,10,0)
GPGPU-Sim PTX: 13700000 instructions simulated : ctaid=(1,4,0) tid=(5,10,0)
GPGPU-Sim PTX: 13800000 instructions simulated : ctaid=(18,1,0) tid=(1,2,0)
GPGPU-Sim uArch: cycles simulated: 29000  inst.: 13004953 (ipc=448.4) sim_rate=419514 (inst/sec) elapsed = 0:0:00:31 / Fri Jan 16 05:30:34 2015
GPGPU-Sim PTX: 13900000 instructions simulated : ctaid=(7,3,0) tid=(4,18,0)
GPGPU-Sim uArch: Shader 1 finished CTA #1 (29350,0), 5 CTAs running
GPGPU-Sim uArch: core:  1, cta: 1 initialized @(29351,0)
GPGPU-Sim PTX: 14000000 instructions simulated : ctaid=(0,3,0) tid=(4,23,0)
GPGPU-Sim PTX: 14100000 instructions simulated : ctaid=(14,2,0) tid=(5,19,0)
GPGPU-Sim PTX: 14200000 instructions simulated : ctaid=(25,2,0) tid=(2,14,0)
GPGPU-Sim PTX: 14300000 instructions simulated : ctaid=(12,2,0) tid=(7,30,0)
GPGPU-Sim uArch: Shader 3 finished CTA #4 (30355,0), 5 CTAs running
GPGPU-Sim uArch: core:  3, cta: 4 initialized @(30356,0)
GPGPU-Sim uArch: cycles simulated: 30500  inst.: 13552886 (ipc=444.4) sim_rate=423527 (inst/sec) elapsed = 0:0:00:32 / Fri Jan 16 05:30:35 2015
GPGPU-Sim PTX: 14400000 instructions simulated : ctaid=(4,3,0) tid=(4,1,0)
GPGPU-Sim PTX: 14500000 instructions simulated : ctaid=(7,3,0) tid=(2,19,0)
GPGPU-Sim PTX: 14600000 instructions simulated : ctaid=(17,2,0) tid=(4,18,0)
GPGPU-Sim PTX: 14700000 instructions simulated : ctaid=(30,3,0) tid=(2,7,0)
GPGPU-Sim uArch: Shader 4 finished CTA #3 (31357,0), 5 CTAs running
GPGPU-Sim uArch: core:  4, cta: 3 initialized @(31358,0)
GPGPU-Sim uArch: Shader 1 finished CTA #5 (31362,0), 5 CTAs running
GPGPU-Sim uArch: core:  1, cta: 5 initialized @(31363,0)
GPGPU-Sim uArch: cycles simulated: 31500  inst.: 13919139 (ipc=441.9) sim_rate=421792 (inst/sec) elapsed = 0:0:00:33 / Fri Jan 16 05:30:36 2015
GPGPU-Sim PTX: 14800000 instructions simulated : ctaid=(10,3,0) tid=(1,6,0)
GPGPU-Sim PTX: 14900000 instructions simulated : ctaid=(16,2,0) tid=(3,1,0)
GPGPU-Sim uArch: Shader 8 finished CTA #3 (31967,0), 5 CTAs running
GPGPU-Sim uArch: core:  8, cta: 3 initialized @(31968,0)
GPGPU-Sim uArch: Shader 5 finished CTA #2 (32006,0), 5 CTAs running
GPGPU-Sim uArch: core:  5, cta: 2 initialized @(32007,0)
GPGPU-Sim PTX: 15000000 instructions simulated : ctaid=(9,3,0) tid=(5,5,0)
GPGPU-Sim PTX: 15100000 instructions simulated : ctaid=(0,3,0) tid=(2,25,0)
GPGPU-Sim uArch: Shader 7 finished CTA #2 (32497,0), 5 CTAs running
GPGPU-Sim uArch: core:  7, cta: 2 initialized @(32498,0)
GPGPU-Sim uArch: cycles simulated: 32500  inst.: 14291240 (ipc=439.7) sim_rate=420330 (inst/sec) elapsed = 0:0:00:34 / Fri Jan 16 05:30:37 2015
GPGPU-Sim uArch: Shader 0 finished CTA #4 (32535,0), 5 CTAs running
GPGPU-Sim uArch: core:  0, cta: 4 initialized @(32536,0)
GPGPU-Sim PTX: 15200000 instructions simulated : ctaid=(0,3,0) tid=(4,24,0)
GPGPU-Sim PTX: 15300000 instructions simulated : ctaid=(29,3,0) tid=(2,4,0)
GPGPU-Sim PTX: 15400000 instructions simulated : ctaid=(2,3,0) tid=(2,30,0)
GPGPU-Sim uArch: Shader 8 finished CTA #4 (33039,0), 5 CTAs running
GPGPU-Sim uArch: core:  8, cta: 4 initialized @(33040,0)
GPGPU-Sim uArch: Shader 12 finished CTA #0 (33184,0), 5 CTAs running
GPGPU-Sim uArch: core: 12, cta: 0 initialized @(33185,0)
GPGPU-Sim PTX: 15500000 instructions simulated : ctaid=(16,2,0) tid=(4,0,0)
GPGPU-Sim PTX: 15600000 instructions simulated : ctaid=(14,2,0) tid=(4,9,0)
GPGPU-Sim uArch: cycles simulated: 33500  inst.: 14703120 (ipc=438.9) sim_rate=420089 (inst/sec) elapsed = 0:0:00:35 / Fri Jan 16 05:30:38 2015
GPGPU-Sim uArch: Shader 2 finished CTA #1 (33601,0), 5 CTAs running
GPGPU-Sim uArch: core:  2, cta: 1 initialized @(33602,0)
GPGPU-Sim PTX: 15700000 instructions simulated : ctaid=(17,3,0) tid=(7,17,0)
GPGPU-Sim uArch: Shader 0 finished CTA #0 (33782,0), 5 CTAs running
GPGPU-Sim uArch: core:  0, cta: 0 initialized @(33783,0)
GPGPU-Sim PTX: 15800000 instructions simulated : ctaid=(17,2,0) tid=(7,0,0)
GPGPU-Sim PTX: 15900000 instructions simulated : ctaid=(31,3,0) tid=(5,19,0)
GPGPU-Sim uArch: Shader 4 finished CTA #0 (34317,0), 5 CTAs running
GPGPU-Sim uArch: core:  4, cta: 0 initialized @(34318,0)
GPGPU-Sim PTX: 16000000 instructions simulated : ctaid=(29,3,0) tid=(3,23,0)
GPGPU-Sim uArch: Shader 5 finished CTA #0 (34438,0), 5 CTAs running
GPGPU-Sim uArch: core:  5, cta: 0 initialized @(34439,0)
GPGPU-Sim uArch: cycles simulated: 34500  inst.: 15102063 (ipc=437.7) sim_rate=419501 (inst/sec) elapsed = 0:0:00:36 / Fri Jan 16 05:30:39 2015
GPGPU-Sim uArch: Shader 13 finished CTA #0 (34630,0), 5 CTAs running
GPGPU-Sim uArch: core: 13, cta: 0 initialized @(34631,0)
GPGPU-Sim PTX: 16100000 instructions simulated : ctaid=(12,3,0) tid=(5,9,0)
GPGPU-Sim PTX: 16200000 instructions simulated : ctaid=(29,3,0) tid=(2,30,0)
GPGPU-Sim uArch: Shader 6 finished CTA #2 (34908,0), 5 CTAs running
GPGPU-Sim uArch: core:  6, cta: 2 initialized @(34909,0)
GPGPU-Sim uArch: Shader 8 finished CTA #1 (35063,0), 5 CTAs running
GPGPU-Sim uArch: core:  8, cta: 1 initialized @(35064,0)
GPGPU-Sim PTX: 16300000 instructions simulated : ctaid=(19,4,0) tid=(2,11,0)
GPGPU-Sim PTX: 16400000 instructions simulated : ctaid=(18,3,0) tid=(5,25,0)
GPGPU-Sim uArch: cycles simulated: 35500  inst.: 15497728 (ipc=436.6) sim_rate=418857 (inst/sec) elapsed = 0:0:00:37 / Fri Jan 16 05:30:40 2015
GPGPU-Sim PTX: 16500000 instructions simulated : ctaid=(24,3,0) tid=(3,10,0)
GPGPU-Sim uArch: Shader 14 finished CTA #4 (35601,0), 5 CTAs running
GPGPU-Sim uArch: core: 14, cta: 4 initialized @(35602,0)
GPGPU-Sim PTX: 16600000 instructions simulated : ctaid=(15,3,0) tid=(5,11,0)
GPGPU-Sim PTX: 16700000 instructions simulated : ctaid=(9,3,0) tid=(5,6,0)
GPGPU-Sim PTX: 16800000 instructions simulated : ctaid=(2,2,0) tid=(1,18,0)
GPGPU-Sim uArch: cycles simulated: 36500  inst.: 15898601 (ipc=435.6) sim_rate=418384 (inst/sec) elapsed = 0:0:00:38 / Fri Jan 16 05:30:41 2015
GPGPU-Sim PTX: 16900000 instructions simulated : ctaid=(11,3,0) tid=(7,20,0)
GPGPU-Sim PTX: 17000000 instructions simulated : ctaid=(13,3,0) tid=(7,4,0)
GPGPU-Sim PTX: 17100000 instructions simulated : ctaid=(20,3,0) tid=(0,27,0)
GPGPU-Sim PTX: 17200000 instructions simulated : ctaid=(27,3,0) tid=(5,11,0)
GPGPU-Sim uArch: Shader 11 finished CTA #4 (37421,0), 5 CTAs running
GPGPU-Sim uArch: core: 11, cta: 4 initialized @(37422,0)
GPGPU-Sim PTX: 17300000 instructions simulated : ctaid=(13,3,0) tid=(4,14,0)
GPGPU-Sim uArch: cycles simulated: 37500  inst.: 16291243 (ipc=434.4) sim_rate=417724 (inst/sec) elapsed = 0:0:00:39 / Fri Jan 16 05:30:42 2015
GPGPU-Sim PTX: 17400000 instructions simulated : ctaid=(13,2,0) tid=(5,16,0)
GPGPU-Sim PTX: 17500000 instructions simulated : ctaid=(13,2,0) tid=(3,15,0)
GPGPU-Sim PTX: 17600000 instructions simulated : ctaid=(16,3,0) tid=(0,2,0)
GPGPU-Sim uArch: Shader 3 finished CTA #3 (38197,0), 5 CTAs running
GPGPU-Sim uArch: core:  3, cta: 3 initialized @(38198,0)
GPGPU-Sim PTX: 17700000 instructions simulated : ctaid=(16,2,0) tid=(5,13,0)
GPGPU-Sim uArch: cycles simulated: 38500  inst.: 16692613 (ipc=433.6) sim_rate=417315 (inst/sec) elapsed = 0:0:00:40 / Fri Jan 16 05:30:43 2015
GPGPU-Sim uArch: Shader 2 finished CTA #3 (38635,0), 5 CTAs running
GPGPU-Sim uArch: core:  2, cta: 3 initialized @(38636,0)
GPGPU-Sim PTX: 17800000 instructions simulated : ctaid=(9,4,0) tid=(5,3,0)
GPGPU-Sim uArch: Shader 12 finished CTA #4 (38782,0), 5 CTAs running
GPGPU-Sim uArch: core: 12, cta: 4 initialized @(38783,0)
GPGPU-Sim PTX: 17900000 instructions simulated : ctaid=(1,4,0) tid=(1,3,0)
GPGPU-Sim PTX: 18000000 instructions simulated : ctaid=(30,3,0) tid=(2,21,0)
GPGPU-Sim PTX: 18100000 instructions simulated : ctaid=(8,3,0) tid=(2,7,0)
GPGPU-Sim uArch: cycles simulated: 39500  inst.: 17099435 (ipc=432.9) sim_rate=417059 (inst/sec) elapsed = 0:0:00:41 / Fri Jan 16 05:30:44 2015
GPGPU-Sim PTX: 18200000 instructions simulated : ctaid=(18,2,0) tid=(2,5,0)
GPGPU-Sim PTX: 18300000 instructions simulated : ctaid=(7,3,0) tid=(3,31,0)
GPGPU-Sim uArch: Shader 4 finished CTA #4 (39879,0), 5 CTAs running
GPGPU-Sim uArch: core:  4, cta: 4 initialized @(39880,0)
GPGPU-Sim uArch: cycles simulated: 40000  inst.: 17306168 (ipc=432.7) sim_rate=412051 (inst/sec) elapsed = 0:0:00:42 / Fri Jan 16 05:30:45 2015
GPGPU-Sim PTX: 18400000 instructions simulated : ctaid=(7,3,0) tid=(7,17,0)
GPGPU-Sim PTX: 18500000 instructions simulated : ctaid=(15,2,0) tid=(3,30,0)
GPGPU-Sim PTX: 18600000 instructions simulated : ctaid=(20,3,0) tid=(5,6,0)
GPGPU-Sim PTX: 18700000 instructions simulated : ctaid=(19,3,0) tid=(2,25,0)
GPGPU-Sim uArch: Shader 13 finished CTA #5 (40747,0), 5 CTAs running
GPGPU-Sim uArch: core: 13, cta: 5 initialized @(40748,0)
GPGPU-Sim PTX: 18800000 instructions simulated : ctaid=(3,4,0) tid=(4,9,0)
GPGPU-Sim uArch: Shader 10 finished CTA #5 (40988,0), 5 CTAs running
GPGPU-Sim uArch: core: 10, cta: 5 initialized @(40989,0)
GPGPU-Sim uArch: cycles simulated: 41000  inst.: 17714758 (ipc=432.1) sim_rate=411971 (inst/sec) elapsed = 0:0:00:43 / Fri Jan 16 05:30:46 2015
GPGPU-Sim uArch: Shader 10 finished CTA #4 (41048,0), 5 CTAs running
GPGPU-Sim uArch: core: 10, cta: 4 initialized @(41049,0)
GPGPU-Sim PTX: 18900000 instructions simulated : ctaid=(16,3,0) tid=(3,6,0)
GPGPU-Sim PTX: 19000000 instructions simulated : ctaid=(20,3,0) tid=(3,7,0)
GPGPU-Sim uArch: Shader 13 finished CTA #4 (41566,0), 5 CTAs running
GPGPU-Sim uArch: core: 13, cta: 4 initialized @(41567,0)
GPGPU-Sim uArch: Shader 9 finished CTA #4 (41585,0), 5 CTAs running
GPGPU-Sim uArch: core:  9, cta: 4 initialized @(41586,0)
GPGPU-Sim uArch: Shader 4 finished CTA #2 (41635,0), 5 CTAs running
GPGPU-Sim uArch: core:  4, cta: 2 initialized @(41636,0)
GPGPU-Sim PTX: 19100000 instructions simulated : ctaid=(3,4,0) tid=(4,14,0)
GPGPU-Sim PTX: 19200000 instructions simulated : ctaid=(17,3,0) tid=(6,26,0)
GPGPU-Sim uArch: cycles simulated: 42000  inst.: 18137250 (ipc=431.8) sim_rate=412210 (inst/sec) elapsed = 0:0:00:44 / Fri Jan 16 05:30:47 2015
GPGPU-Sim PTX: 19300000 instructions simulated : ctaid=(14,4,0) tid=(7,16,0)
GPGPU-Sim PTX: 19400000 instructions simulated : ctaid=(0,5,0) tid=(0,1,0)
GPGPU-Sim uArch: Shader 7 finished CTA #3 (42362,0), 5 CTAs running
GPGPU-Sim uArch: core:  7, cta: 3 initialized @(42363,0)
GPGPU-Sim PTX: 19500000 instructions simulated : ctaid=(15,3,0) tid=(3,9,0)
GPGPU-Sim uArch: Shader 5 finished CTA #3 (42608,0), 5 CTAs running
GPGPU-Sim uArch: core:  5, cta: 3 initialized @(42609,0)
GPGPU-Sim PTX: 19600000 instructions simulated : ctaid=(17,2,0) tid=(2,6,0)
GPGPU-Sim PTX: 19700000 instructions simulated : ctaid=(7,4,0) tid=(7,9,0)
GPGPU-Sim uArch: cycles simulated: 43000  inst.: 18564142 (ipc=431.7) sim_rate=412536 (inst/sec) elapsed = 0:0:00:45 / Fri Jan 16 05:30:48 2015
GPGPU-Sim uArch: Shader 9 finished CTA #5 (43116,0), 5 CTAs running
GPGPU-Sim uArch: core:  9, cta: 5 initialized @(43117,0)
GPGPU-Sim PTX: 19800000 instructions simulated : ctaid=(9,3,0) tid=(3,6,0)
GPGPU-Sim uArch: Shader 3 finished CTA #2 (43292,0), 5 CTAs running
GPGPU-Sim uArch: core:  3, cta: 2 initialized @(43293,0)
GPGPU-Sim PTX: 19900000 instructions simulated : ctaid=(18,4,0) tid=(1,18,0)
GPGPU-Sim PTX: 20000000 instructions simulated : ctaid=(30,3,0) tid=(0,25,0)
GPGPU-Sim uArch: Shader 0 finished CTA #1 (43702,0), 5 CTAs running
GPGPU-Sim uArch: core:  0, cta: 1 initialized @(43703,0)
GPGPU-Sim PTX: 20100000 instructions simulated : ctaid=(14,4,0) tid=(5,26,0)
GPGPU-Sim uArch: cycles simulated: 44000  inst.: 18979782 (ipc=431.4) sim_rate=412603 (inst/sec) elapsed = 0:0:00:46 / Fri Jan 16 05:30:49 2015
GPGPU-Sim PTX: 20200000 instructions simulated : ctaid=(15,3,0) tid=(5,24,0)
GPGPU-Sim PTX: 20300000 instructions simulated : ctaid=(22,4,0) tid=(5,10,0)
GPGPU-Sim PTX: 20400000 instructions simulated : ctaid=(7,4,0) tid=(3,19,0)
GPGPU-Sim PTX: 20500000 instructions simulated : ctaid=(31,2,0) tid=(4,11,0)
GPGPU-Sim uArch: cycles simulated: 45000  inst.: 19385488 (ipc=430.8) sim_rate=412457 (inst/sec) elapsed = 0:0:00:47 / Fri Jan 16 05:30:50 2015
GPGPU-Sim PTX: 20600000 instructions simulated : ctaid=(4,4,0) tid=(7,26,0)
GPGPU-Sim PTX: 20700000 instructions simulated : ctaid=(3,4,0) tid=(5,15,0)
GPGPU-Sim PTX: 20800000 instructions simulated : ctaid=(5,3,0) tid=(7,4,0)
GPGPU-Sim PTX: 20900000 instructions simulated : ctaid=(28,4,0) tid=(4,18,0)
GPGPU-Sim PTX: 21000000 instructions simulated : ctaid=(9,4,0) tid=(6,16,0)
GPGPU-Sim uArch: cycles simulated: 46000  inst.: 19783193 (ipc=430.1) sim_rate=412149 (inst/sec) elapsed = 0:0:00:48 / Fri Jan 16 05:30:51 2015
GPGPU-Sim PTX: 21100000 instructions simulated : ctaid=(30,3,0) tid=(5,21,0)
GPGPU-Sim PTX: 21200000 instructions simulated : ctaid=(20,3,0) tid=(6,29,0)
GPGPU-Sim PTX: 21300000 instructions simulated : ctaid=(25,2,0) tid=(5,31,0)
GPGPU-Sim PTX: 21400000 instructions simulated : ctaid=(31,2,0) tid=(7,10,0)
GPGPU-Sim uArch: cycles simulated: 47000  inst.: 20160734 (ipc=429.0) sim_rate=411443 (inst/sec) elapsed = 0:0:00:49 / Fri Jan 16 05:30:52 2015
GPGPU-Sim PTX: 21500000 instructions simulated : ctaid=(12,4,0) tid=(5,27,0)
GPGPU-Sim PTX: 21600000 instructions simulated : ctaid=(26,4,0) tid=(2,0,0)
GPGPU-Sim PTX: 21700000 instructions simulated : ctaid=(1,2,0) tid=(6,23,0)
GPGPU-Sim uArch: Shader 2 finished CTA #5 (47886,0), 5 CTAs running
GPGPU-Sim uArch: core:  2, cta: 5 initialized @(47887,0)
GPGPU-Sim uArch: Shader 5 finished CTA #1 (47987,0), 5 CTAs running
GPGPU-Sim uArch: core:  5, cta: 1 initialized @(47988,0)
GPGPU-Sim uArch: cycles simulated: 48000  inst.: 20517332 (ipc=427.4) sim_rate=410346 (inst/sec) elapsed = 0:0:00:50 / Fri Jan 16 05:30:53 2015
GPGPU-Sim PTX: 21800000 instructions simulated : ctaid=(3,4,0) tid=(3,5,0)
GPGPU-Sim PTX: 21900000 instructions simulated : ctaid=(16,4,0) tid=(0,8,0)
GPGPU-Sim uArch: Shader 12 finished CTA #5 (48509,0), 5 CTAs running
GPGPU-Sim uArch: core: 12, cta: 5 initialized @(48510,0)
GPGPU-Sim PTX: 22000000 instructions simulated : ctaid=(31,3,0) tid=(1,31,0)
GPGPU-Sim PTX: 22100000 instructions simulated : ctaid=(19,3,0) tid=(6,12,0)
GPGPU-Sim uArch: Shader 11 finished CTA #5 (48928,0), 5 CTAs running
GPGPU-Sim uArch: core: 11, cta: 5 initialized @(48929,0)
GPGPU-Sim uArch: cycles simulated: 49000  inst.: 20889805 (ipc=426.3) sim_rate=409604 (inst/sec) elapsed = 0:0:00:51 / Fri Jan 16 05:30:54 2015
GPGPU-Sim PTX: 22200000 instructions simulated : ctaid=(24,3,0) tid=(0,14,0)
GPGPU-Sim uArch: Shader 13 finished CTA #1 (49103,0), 5 CTAs running
GPGPU-Sim uArch: core: 13, cta: 1 initialized @(49104,0)
GPGPU-Sim PTX: 22300000 instructions simulated : ctaid=(10,4,0) tid=(5,13,0)
GPGPU-Sim PTX: 22400000 instructions simulated : ctaid=(22,3,0) tid=(2,12,0)
GPGPU-Sim PTX: 22500000 instructions simulated : ctaid=(12,4,0) tid=(5,18,0)
GPGPU-Sim uArch: Shader 0 finished CTA #5 (49874,0), 5 CTAs running
GPGPU-Sim uArch: core:  0, cta: 5 initialized @(49875,0)
GPGPU-Sim uArch: Shader 13 finished CTA #3 (49893,0), 5 CTAs running
GPGPU-Sim uArch: core: 13, cta: 3 initialized @(49894,0)
GPGPU-Sim uArch: cycles simulated: 50000  inst.: 21257922 (ipc=425.2) sim_rate=408806 (inst/sec) elapsed = 0:0:00:52 / Fri Jan 16 05:30:55 2015
GPGPU-Sim PTX: 22600000 instructions simulated : ctaid=(13,4,0) tid=(2,19,0)
GPGPU-Sim PTX: 22700000 instructions simulated : ctaid=(24,3,0) tid=(7,13,0)
GPGPU-Sim PTX: 22800000 instructions simulated : ctaid=(24,3,0) tid=(3,4,0)
GPGPU-Sim uArch: Shader 5 finished CTA #4 (50636,0), 5 CTAs running
GPGPU-Sim uArch: core:  5, cta: 4 initialized @(50637,0)
GPGPU-Sim PTX: 22900000 instructions simulated : ctaid=(14,4,0) tid=(1,17,0)
GPGPU-Sim uArch: cycles simulated: 51000  inst.: 21622549 (ipc=424.0) sim_rate=407972 (inst/sec) elapsed = 0:0:00:53 / Fri Jan 16 05:30:56 2015
GPGPU-Sim PTX: 23000000 instructions simulated : ctaid=(24,3,0) tid=(2,25,0)
GPGPU-Sim PTX: 23100000 instructions simulated : ctaid=(25,3,0) tid=(6,11,0)
GPGPU-Sim PTX: 23200000 instructions simulated : ctaid=(19,4,0) tid=(4,14,0)
GPGPU-Sim uArch: Shader 11 finished CTA #1 (51617,0), 5 CTAs running
GPGPU-Sim uArch: core: 11, cta: 1 initialized @(51618,0)
GPGPU-Sim PTX: 23300000 instructions simulated : ctaid=(21,4,0) tid=(3,2,0)
GPGPU-Sim uArch: Shader 8 finished CTA #5 (51971,0), 5 CTAs running
GPGPU-Sim uArch: core:  8, cta: 5 initialized @(51972,0)
GPGPU-Sim uArch: cycles simulated: 52000  inst.: 21982829 (ipc=422.7) sim_rate=407089 (inst/sec) elapsed = 0:0:00:54 / Fri Jan 16 05:30:57 2015
GPGPU-Sim uArch: Shader 14 finished CTA #5 (52109,0), 5 CTAs running
GPGPU-Sim uArch: core: 14, cta: 5 initialized @(52110,0)
GPGPU-Sim PTX: 23400000 instructions simulated : ctaid=(23,4,0) tid=(2,9,0)
GPGPU-Sim PTX: 23500000 instructions simulated : ctaid=(16,2,0) tid=(4,12,0)
GPGPU-Sim PTX: 23600000 instructions simulated : ctaid=(3,5,0) tid=(3,25,0)
GPGPU-Sim PTX: 23700000 instructions simulated : ctaid=(26,4,0) tid=(6,13,0)
GPGPU-Sim uArch: cycles simulated: 53000  inst.: 22340261 (ipc=421.5) sim_rate=406186 (inst/sec) elapsed = 0:0:00:55 / Fri Jan 16 05:30:58 2015
GPGPU-Sim uArch: Shader 6 finished CTA #3 (53035,0), 5 CTAs running
GPGPU-Sim uArch: core:  6, cta: 3 initialized @(53036,0)
GPGPU-Sim PTX: 23800000 instructions simulated : ctaid=(3,5,0) tid=(6,8,0)
GPGPU-Sim PTX: 23900000 instructions simulated : ctaid=(16,3,0) tid=(4,31,0)
GPGPU-Sim uArch: Shader 1 finished CTA #0 (53438,0), 5 CTAs running
GPGPU-Sim uArch: core:  1, cta: 0 initialized @(53439,0)
GPGPU-Sim PTX: 24000000 instructions simulated : ctaid=(14,2,0) tid=(2,21,0)
GPGPU-Sim uArch: Shader 12 finished CTA #3 (53773,0), 5 CTAs running
GPGPU-Sim uArch: core: 12, cta: 3 initialized @(53774,0)
GPGPU-Sim PTX: 24100000 instructions simulated : ctaid=(15,3,0) tid=(6,4,0)
GPGPU-Sim uArch: cycles simulated: 54000  inst.: 22701052 (ipc=420.4) sim_rate=405375 (inst/sec) elapsed = 0:0:00:56 / Fri Jan 16 05:30:59 2015
GPGPU-Sim uArch: Shader 6 finished CTA #4 (54047,0), 5 CTAs running
GPGPU-Sim uArch: core:  6, cta: 4 initialized @(54048,0)
GPGPU-Sim PTX: 24200000 instructions simulated : ctaid=(15,4,0) tid=(6,10,0)
GPGPU-Sim PTX: 24300000 instructions simulated : ctaid=(27,3,0) tid=(7,14,0)
GPGPU-Sim PTX: 24400000 instructions simulated : ctaid=(25,3,0) tid=(5,10,0)
GPGPU-Sim uArch: cycles simulated: 55000  inst.: 23046800 (ipc=419.0) sim_rate=404329 (inst/sec) elapsed = 0:0:00:57 / Fri Jan 16 05:31:00 2015
GPGPU-Sim PTX: 24500000 instructions simulated : ctaid=(27,3,0) tid=(3,21,0)
GPGPU-Sim uArch: Shader 14 finished CTA #1 (55137,0), 5 CTAs running
GPGPU-Sim uArch: core: 14, cta: 1 initialized @(55138,0)
GPGPU-Sim PTX: 24600000 instructions simulated : ctaid=(29,2,0) tid=(7,15,0)
GPGPU-Sim PTX: 24700000 instructions simulated : ctaid=(9,5,0) tid=(6,24,0)
GPGPU-Sim uArch: Shader 7 finished CTA #4 (55641,0), 5 CTAs running
GPGPU-Sim uArch: core:  7, cta: 4 initialized @(55642,0)
GPGPU-Sim PTX: 24800000 instructions simulated : ctaid=(15,4,0) tid=(5,2,0)
GPGPU-Sim uArch: Shader 9 finished CTA #1 (55990,0), 5 CTAs running
GPGPU-Sim uArch: core:  9, cta: 1 initialized @(55991,0)
GPGPU-Sim uArch: cycles simulated: 56000  inst.: 23390244 (ipc=417.7) sim_rate=403280 (inst/sec) elapsed = 0:0:00:58 / Fri Jan 16 05:31:01 2015
GPGPU-Sim PTX: 24900000 instructions simulated : ctaid=(11,4,0) tid=(1,10,0)
GPGPU-Sim uArch: Shader 12 finished CTA #1 (56318,0), 5 CTAs running
GPGPU-Sim uArch: core: 12, cta: 1 initialized @(56319,0)
GPGPU-Sim PTX: 25000000 instructions simulated : ctaid=(9,5,0) tid=(4,25,0)
GPGPU-Sim PTX: 25100000 instructions simulated : ctaid=(6,5,0) tid=(4,3,0)
GPGPU-Sim PTX: 25200000 instructions simulated : ctaid=(13,4,0) tid=(1,16,0)
GPGPU-Sim uArch: cycles simulated: 57000  inst.: 23758094 (ipc=416.8) sim_rate=402679 (inst/sec) elapsed = 0:0:00:59 / Fri Jan 16 05:31:02 2015
GPGPU-Sim PTX: 25300000 instructions simulated : ctaid=(16,4,0) tid=(4,8,0)
GPGPU-Sim PTX: 25400000 instructions simulated : ctaid=(14,3,0) tid=(4,24,0)
GPGPU-Sim uArch: Shader 12 finished CTA #2 (57461,0), 5 CTAs running
GPGPU-Sim uArch: core: 12, cta: 2 initialized @(57462,0)
GPGPU-Sim PTX: 25500000 instructions simulated : ctaid=(31,3,0) tid=(5,28,0)
GPGPU-Sim PTX: 25600000 instructions simulated : ctaid=(22,4,0) tid=(7,26,0)
GPGPU-Sim uArch: cycles simulated: 58000  inst.: 24136518 (ipc=416.1) sim_rate=402275 (inst/sec) elapsed = 0:0:01:00 / Fri Jan 16 05:31:03 2015
GPGPU-Sim PTX: 25700000 instructions simulated : ctaid=(10,4,0) tid=(2,5,0)
GPGPU-Sim uArch: Shader 10 finished CTA #1 (58187,0), 5 CTAs running
GPGPU-Sim uArch: core: 10, cta: 1 initialized @(58188,0)
GPGPU-Sim uArch: Shader 1 finished CTA #2 (58331,0), 5 CTAs running
GPGPU-Sim uArch: core:  1, cta: 2 initialized @(58332,0)
GPGPU-Sim PTX: 25800000 instructions simulated : ctaid=(25,3,0) tid=(0,16,0)
GPGPU-Sim PTX: 25900000 instructions simulated : ctaid=(15,4,0) tid=(0,16,0)
GPGPU-Sim PTX: 26000000 instructions simulated : ctaid=(26,4,0) tid=(6,5,0)
GPGPU-Sim uArch: cycles simulated: 59000  inst.: 24539844 (ipc=415.9) sim_rate=402292 (inst/sec) elapsed = 0:0:01:01 / Fri Jan 16 05:31:04 2015
GPGPU-Sim PTX: 26100000 instructions simulated : ctaid=(29,4,0) tid=(0,3,0)
GPGPU-Sim PTX: 26200000 instructions simulated : ctaid=(15,3,0) tid=(6,30,0)
GPGPU-Sim PTX: 26300000 instructions simulated : ctaid=(18,4,0) tid=(0,6,0)
GPGPU-Sim PTX: 26400000 instructions simulated : ctaid=(25,4,0) tid=(7,0,0)
GPGPU-Sim PTX: 26500000 instructions simulated : ctaid=(18,4,0) tid=(1,30,0)
GPGPU-Sim uArch: cycles simulated: 60000  inst.: 24944122 (ipc=415.7) sim_rate=402324 (inst/sec) elapsed = 0:0:01:02 / Fri Jan 16 05:31:05 2015
GPGPU-Sim PTX: 26600000 instructions simulated : ctaid=(11,5,0) tid=(2,1,0)
GPGPU-Sim PTX: 26700000 instructions simulated : ctaid=(15,3,0) tid=(4,29,0)
GPGPU-Sim uArch: Shader 5 finished CTA #5 (60688,0), 5 CTAs running
GPGPU-Sim uArch: core:  5, cta: 5 initialized @(60689,0)
GPGPU-Sim PTX: 26800000 instructions simulated : ctaid=(22,4,0) tid=(5,26,0)
GPGPU-Sim PTX: 26900000 instructions simulated : ctaid=(23,3,0) tid=(1,16,0)
GPGPU-Sim uArch: cycles simulated: 61000  inst.: 25339266 (ipc=415.4) sim_rate=402210 (inst/sec) elapsed = 0:0:01:03 / Fri Jan 16 05:31:06 2015
GPGPU-Sim PTX: 27000000 instructions simulated : ctaid=(17,5,0) tid=(3,27,0)
GPGPU-Sim PTX: 27100000 instructions simulated : ctaid=(31,4,0) tid=(2,24,0)
GPGPU-Sim PTX: 27200000 instructions simulated : ctaid=(25,4,0) tid=(0,17,0)
GPGPU-Sim PTX: 27300000 instructions simulated : ctaid=(31,2,0) tid=(1,30,0)
GPGPU-Sim uArch: cycles simulated: 62000  inst.: 25719709 (ipc=414.8) sim_rate=401870 (inst/sec) elapsed = 0:0:01:04 / Fri Jan 16 05:31:07 2015
GPGPU-Sim PTX: 27400000 instructions simulated : ctaid=(28,3,0) tid=(3,6,0)
GPGPU-Sim PTX: 27500000 instructions simulated : ctaid=(20,4,0) tid=(3,24,0)
GPGPU-Sim PTX: 27600000 instructions simulated : ctaid=(31,4,0) tid=(3,4,0)
GPGPU-Sim PTX: 27700000 instructions simulated : ctaid=(28,4,0) tid=(0,30,0)
GPGPU-Sim uArch: cycles simulated: 63000  inst.: 26095622 (ipc=414.2) sim_rate=401471 (inst/sec) elapsed = 0:0:01:05 / Fri Jan 16 05:31:08 2015
GPGPU-Sim uArch: Shader 8 finished CTA #0 (63049,0), 5 CTAs running
GPGPU-Sim uArch: core:  8, cta: 0 initialized @(63050,0)
GPGPU-Sim uArch: Shader 8 finished CTA #2 (63096,0), 5 CTAs running
GPGPU-Sim uArch: core:  8, cta: 2 initialized @(63097,0)
GPGPU-Sim uArch: Shader 11 finished CTA #2 (63127,0), 5 CTAs running
GPGPU-Sim uArch: core: 11, cta: 2 initialized @(63128,0)
GPGPU-Sim PTX: 27800000 instructions simulated : ctaid=(17,5,0) tid=(5,0,0)
GPGPU-Sim PTX: 27900000 instructions simulated : ctaid=(9,4,0) tid=(0,28,0)
GPGPU-Sim PTX: 28000000 instructions simulated : ctaid=(25,4,0) tid=(2,3,0)
GPGPU-Sim uArch: Shader 10 finished CTA #2 (63866,0), 5 CTAs running
GPGPU-Sim uArch: core: 10, cta: 2 initialized @(63867,0)
GPGPU-Sim PTX: 28100000 instructions simulated : ctaid=(28,3,0) tid=(0,30,0)
GPGPU-Sim uArch: cycles simulated: 64000  inst.: 26487407 (ipc=413.9) sim_rate=401324 (inst/sec) elapsed = 0:0:01:06 / Fri Jan 16 05:31:09 2015
GPGPU-Sim PTX: 28200000 instructions simulated : ctaid=(21,4,0) tid=(2,21,0)
GPGPU-Sim uArch: Shader 0 finished CTA #2 (64134,0), 5 CTAs running
GPGPU-Sim uArch: core:  0, cta: 2 initialized @(64135,0)
GPGPU-Sim PTX: 28300000 instructions simulated : ctaid=(25,3,0) tid=(1,14,0)
GPGPU-Sim uArch: Shader 9 finished CTA #3 (64416,0), 5 CTAs running
GPGPU-Sim uArch: core:  9, cta: 3 initialized @(64417,0)
GPGPU-Sim uArch: Shader 2 finished CTA #0 (64554,0), 5 CTAs running
GPGPU-Sim uArch: core:  2, cta: 0 initialized @(64555,0)
GPGPU-Sim PTX: 28400000 instructions simulated : ctaid=(15,3,0) tid=(4,20,0)
GPGPU-Sim uArch: Shader 9 finished CTA #2 (64809,0), 5 CTAs running
GPGPU-Sim uArch: core:  9, cta: 2 initialized @(64810,0)
GPGPU-Sim PTX: 28500000 instructions simulated : ctaid=(10,4,0) tid=(5,12,0)
GPGPU-Sim uArch: Shader 2 finished CTA #2 (64839,0), 5 CTAs running
GPGPU-Sim uArch: core:  2, cta: 2 initialized @(64840,0)
GPGPU-Sim uArch: Shader 13 finished CTA #2 (64876,0), 5 CTAs running
GPGPU-Sim uArch: core: 13, cta: 2 initialized @(64877,0)
GPGPU-Sim uArch: cycles simulated: 65000  inst.: 26891735 (ipc=413.7) sim_rate=401369 (inst/sec) elapsed = 0:0:01:07 / Fri Jan 16 05:31:10 2015
GPGPU-Sim PTX: 28600000 instructions simulated : ctaid=(11,5,0) tid=(5,18,0)
GPGPU-Sim uArch: Shader 0 finished CTA #3 (65071,0), 5 CTAs running
GPGPU-Sim uArch: core:  0, cta: 3 initialized @(65072,0)
GPGPU-Sim PTX: 28700000 instructions simulated : ctaid=(21,4,0) tid=(3,3,0)
GPGPU-Sim uArch: Shader 3 finished CTA #5 (65359,0), 5 CTAs running
GPGPU-Sim uArch: core:  3, cta: 5 initialized @(65360,0)
GPGPU-Sim PTX: 28800000 instructions simulated : ctaid=(3,6,0) tid=(4,10,0)
GPGPU-Sim uArch: Shader 4 finished CTA #5 (65649,0), 5 CTAs running
GPGPU-Sim uArch: core:  4, cta: 5 initialized @(65650,0)
GPGPU-Sim uArch: Shader 12 finished CTA #4 (65674,0), 5 CTAs running
GPGPU-Sim uArch: core: 12, cta: 4 initialized @(65675,0)
GPGPU-Sim PTX: 28900000 instructions simulated : ctaid=(11,4,0) tid=(4,7,0)
GPGPU-Sim uArch: Shader 13 finished CTA #5 (65883,0), 5 CTAs running
GPGPU-Sim uArch: core: 13, cta: 5 initialized @(65884,0)
GPGPU-Sim PTX: 29000000 instructions simulated : ctaid=(9,5,0) tid=(5,7,0)
GPGPU-Sim uArch: cycles simulated: 66000  inst.: 27316081 (ipc=413.9) sim_rate=401707 (inst/sec) elapsed = 0:0:01:08 / Fri Jan 16 05:31:11 2015
GPGPU-Sim PTX: 29100000 instructions simulated : ctaid=(9,5,0) tid=(2,19,0)
GPGPU-Sim PTX: 29200000 instructions simulated : ctaid=(26,3,0) tid=(7,22,0)
GPGPU-Sim uArch: cycles simulated: 66500  inst.: 27533871 (ipc=414.0) sim_rate=399041 (inst/sec) elapsed = 0:0:01:09 / Fri Jan 16 05:31:12 2015
GPGPU-Sim PTX: 29300000 instructions simulated : ctaid=(7,4,0) tid=(6,13,0)
GPGPU-Sim PTX: 29400000 instructions simulated : ctaid=(6,4,0) tid=(6,6,0)
GPGPU-Sim PTX: 29500000 instructions simulated : ctaid=(11,4,0) tid=(0,21,0)
GPGPU-Sim PTX: 29600000 instructions simulated : ctaid=(0,4,0) tid=(6,4,0)
GPGPU-Sim uArch: cycles simulated: 67500  inst.: 27943265 (ipc=414.0) sim_rate=399189 (inst/sec) elapsed = 0:0:01:10 / Fri Jan 16 05:31:13 2015
GPGPU-Sim PTX: 29700000 instructions simulated : ctaid=(24,4,0) tid=(2,17,0)
GPGPU-Sim PTX: 29800000 instructions simulated : ctaid=(14,4,0) tid=(7,5,0)
GPGPU-Sim uArch: Shader 6 finished CTA #1 (67800,0), 5 CTAs running
GPGPU-Sim uArch: core:  6, cta: 1 initialized @(67801,0)
GPGPU-Sim PTX: 29900000 instructions simulated : ctaid=(14,4,0) tid=(2,15,0)
GPGPU-Sim PTX: 30000000 instructions simulated : ctaid=(8,5,0) tid=(2,19,0)
GPGPU-Sim PTX: 30100000 instructions simulated : ctaid=(7,5,0) tid=(3,9,0)
GPGPU-Sim uArch: cycles simulated: 68500  inst.: 28349782 (ipc=413.9) sim_rate=399292 (inst/sec) elapsed = 0:0:01:11 / Fri Jan 16 05:31:14 2015
GPGPU-Sim PTX: 30200000 instructions simulated : ctaid=(13,4,0) tid=(3,15,0)
GPGPU-Sim PTX: 30300000 instructions simulated : ctaid=(25,4,0) tid=(3,15,0)
GPGPU-Sim PTX: 30400000 instructions simulated : ctaid=(5,5,0) tid=(5,9,0)
GPGPU-Sim PTX: 30500000 instructions simulated : ctaid=(15,4,0) tid=(0,28,0)
GPGPU-Sim uArch: cycles simulated: 69500  inst.: 28740024 (ipc=413.5) sim_rate=399167 (inst/sec) elapsed = 0:0:01:12 / Fri Jan 16 05:31:15 2015
GPGPU-Sim PTX: 30600000 instructions simulated : ctaid=(18,5,0) tid=(7,11,0)
GPGPU-Sim PTX: 30700000 instructions simulated : ctaid=(16,5,0) tid=(0,9,0)
GPGPU-Sim PTX: 30800000 instructions simulated : ctaid=(14,4,0) tid=(1,29,0)
GPGPU-Sim uArch: Shader 7 finished CTA #1 (70108,0), 5 CTAs running
GPGPU-Sim uArch: core:  7, cta: 1 initialized @(70109,0)
GPGPU-Sim PTX: 30900000 instructions simulated : ctaid=(21,4,0) tid=(5,30,0)
GPGPU-Sim uArch: cycles simulated: 70500  inst.: 29156296 (ipc=413.6) sim_rate=399401 (inst/sec) elapsed = 0:0:01:13 / Fri Jan 16 05:31:16 2015
GPGPU-Sim PTX: 31000000 instructions simulated : ctaid=(8,5,0) tid=(5,27,0)
GPGPU-Sim uArch: Shader 7 finished CTA #5 (70572,0), 5 CTAs running
GPGPU-Sim uArch: core:  7, cta: 5 initialized @(70573,0)
GPGPU-Sim PTX: 31100000 instructions simulated : ctaid=(9,5,0) tid=(0,31,0)
GPGPU-Sim PTX: 31200000 instructions simulated : ctaid=(25,4,0) tid=(7,23,0)
GPGPU-Sim PTX: 31300000 instructions simulated : ctaid=(16,4,0) tid=(3,21,0)
GPGPU-Sim PTX: 31400000 instructions simulated : ctaid=(23,5,0) tid=(0,27,0)
GPGPU-Sim uArch: cycles simulated: 71500  inst.: 29571704 (ipc=413.6) sim_rate=399617 (inst/sec) elapsed = 0:0:01:14 / Fri Jan 16 05:31:17 2015
GPGPU-Sim uArch: Shader 3 finished CTA #0 (71514,0), 5 CTAs running
GPGPU-Sim uArch: core:  3, cta: 0 initialized @(71515,0)
GPGPU-Sim PTX: 31500000 instructions simulated : ctaid=(16,4,0) tid=(0,30,0)
GPGPU-Sim PTX: 31600000 instructions simulated : ctaid=(13,4,0) tid=(5,24,0)
GPGPU-Sim PTX: 31700000 instructions simulated : ctaid=(18,5,0) tid=(0,26,0)
GPGPU-Sim PTX: 31800000 instructions simulated : ctaid=(20,5,0) tid=(6,10,0)
GPGPU-Sim uArch: cycles simulated: 72500  inst.: 29975857 (ipc=413.5) sim_rate=399678 (inst/sec) elapsed = 0:0:01:15 / Fri Jan 16 05:31:18 2015
GPGPU-Sim PTX: 31900000 instructions simulated : ctaid=(23,5,0) tid=(3,27,0)
GPGPU-Sim uArch: Shader 9 finished CTA #0 (72835,0), 5 CTAs running
GPGPU-Sim uArch: core:  9, cta: 0 initialized @(72836,0)
GPGPU-Sim PTX: 32000000 instructions simulated : ctaid=(23,3,0) tid=(7,23,0)
GPGPU-Sim PTX: 32100000 instructions simulated : ctaid=(8,5,0) tid=(1,16,0)
GPGPU-Sim PTX: 32200000 instructions simulated : ctaid=(31,4,0) tid=(3,7,0)
GPGPU-Sim uArch: Shader 4 finished CTA #1 (73317,0), 5 CTAs running
GPGPU-Sim uArch: core:  4, cta: 1 initialized @(73318,0)
GPGPU-Sim uArch: cycles simulated: 73500  inst.: 30373502 (ipc=413.2) sim_rate=399651 (inst/sec) elapsed = 0:0:01:16 / Fri Jan 16 05:31:19 2015
GPGPU-Sim PTX: 32300000 instructions simulated : ctaid=(18,5,0) tid=(0,8,0)
GPGPU-Sim PTX: 32400000 instructions simulated : ctaid=(9,5,0) tid=(7,14,0)
GPGPU-Sim PTX: 32500000 instructions simulated : ctaid=(16,5,0) tid=(3,3,0)
GPGPU-Sim PTX: 32600000 instructions simulated : ctaid=(13,5,0) tid=(1,11,0)
GPGPU-Sim uArch: Shader 2 finished CTA #4 (74435,0), 5 CTAs running
GPGPU-Sim uArch: core:  2, cta: 4 initialized @(74436,0)
GPGPU-Sim uArch: Shader 7 finished CTA #0 (74468,0), 5 CTAs running
GPGPU-Sim uArch: core:  7, cta: 0 initialized @(74469,0)
GPGPU-Sim PTX: 32700000 instructions simulated : ctaid=(16,5,0) tid=(6,0,0)
GPGPU-Sim uArch: cycles simulated: 74500  inst.: 30771939 (ipc=413.0) sim_rate=399635 (inst/sec) elapsed = 0:0:01:17 / Fri Jan 16 05:31:20 2015
GPGPU-Sim PTX: 32800000 instructions simulated : ctaid=(5,4,0) tid=(6,25,0)
GPGPU-Sim uArch: Shader 9 finished CTA #4 (74759,0), 5 CTAs running
GPGPU-Sim uArch: core:  9, cta: 4 initialized @(74760,0)
GPGPU-Sim PTX: 32900000 instructions simulated : ctaid=(10,6,0) tid=(1,2,0)
GPGPU-Sim uArch: Shader 14 finished CTA #3 (75037,0), 5 CTAs running
GPGPU-Sim uArch: core: 14, cta: 3 initialized @(75038,0)
GPGPU-Sim uArch: Shader 11 finished CTA #0 (75200,0), 5 CTAs running
GPGPU-Sim uArch: core: 11, cta: 0 initialized @(75201,0)
GPGPU-Sim PTX: 33000000 instructions simulated : ctaid=(17,6,0) tid=(1,17,0)
GPGPU-Sim PTX: 33100000 instructions simulated : ctaid=(30,4,0) tid=(2,26,0)
GPGPU-Sim uArch: cycles simulated: 75500  inst.: 31156591 (ipc=412.7) sim_rate=399443 (inst/sec) elapsed = 0:0:01:18 / Fri Jan 16 05:31:21 2015
GPGPU-Sim PTX: 33200000 instructions simulated : ctaid=(14,6,0) tid=(5,1,0)
GPGPU-Sim PTX: 33300000 instructions simulated : ctaid=(8,4,0) tid=(6,26,0)
GPGPU-Sim uArch: cycles simulated: 76000  inst.: 31347628 (ipc=412.5) sim_rate=396805 (inst/sec) elapsed = 0:0:01:19 / Fri Jan 16 05:31:22 2015
GPGPU-Sim PTX: 33400000 instructions simulated : ctaid=(11,4,0) tid=(3,29,0)
GPGPU-Sim PTX: 33500000 instructions simulated : ctaid=(17,6,0) tid=(6,27,0)
GPGPU-Sim PTX: 33600000 instructions simulated : ctaid=(20,5,0) tid=(2,25,0)
GPGPU-Sim uArch: Shader 14 finished CTA #2 (76679,0), 5 CTAs running
GPGPU-Sim uArch: core: 14, cta: 2 initialized @(76680,0)
GPGPU-Sim PTX: 33700000 instructions simulated : ctaid=(13,5,0) tid=(4,16,0)
GPGPU-Sim uArch: cycles simulated: 77000  inst.: 31740751 (ipc=412.2) sim_rate=396759 (inst/sec) elapsed = 0:0:01:20 / Fri Jan 16 05:31:23 2015
GPGPU-Sim PTX: 33800000 instructions simulated : ctaid=(18,5,0) tid=(6,11,0)
GPGPU-Sim PTX: 33900000 instructions simulated : ctaid=(26,3,0) tid=(7,4,0)
GPGPU-Sim PTX: 34000000 instructions simulated : ctaid=(27,4,0) tid=(1,14,0)
GPGPU-Sim uArch: Shader 11 finished CTA #3 (77819,0), 5 CTAs running
GPGPU-Sim uArch: core: 11, cta: 3 initialized @(77820,0)
GPGPU-Sim PTX: 34100000 instructions simulated : ctaid=(9,4,0) tid=(0,30,0)
GPGPU-Sim uArch: cycles simulated: 78000  inst.: 32127694 (ipc=411.9) sim_rate=396638 (inst/sec) elapsed = 0:0:01:21 / Fri Jan 16 05:31:24 2015
GPGPU-Sim PTX: 34200000 instructions simulated : ctaid=(8,6,0) tid=(6,3,0)
GPGPU-Sim PTX: 34300000 instructions simulated : ctaid=(20,4,0) tid=(0,5,0)
GPGPU-Sim PTX: 34400000 instructions simulated : ctaid=(7,5,0) tid=(3,25,0)
GPGPU-Sim PTX: 34500000 instructions simulated : ctaid=(18,6,0) tid=(2,10,0)
GPGPU-Sim uArch: Shader 9 finished CTA #5 (78993,0), 5 CTAs running
GPGPU-Sim uArch: core:  9, cta: 5 initialized @(78994,0)
GPGPU-Sim uArch: cycles simulated: 79000  inst.: 32514438 (ipc=411.6) sim_rate=396517 (inst/sec) elapsed = 0:0:01:22 / Fri Jan 16 05:31:25 2015
GPGPU-Sim PTX: 34600000 instructions simulated : ctaid=(14,6,0) tid=(0,10,0)
GPGPU-Sim uArch: Shader 13 finished CTA #0 (79162,0), 5 CTAs running
GPGPU-Sim uArch: core: 13, cta: 0 initialized @(79163,0)
GPGPU-Sim PTX: 34700000 instructions simulated : ctaid=(17,5,0) tid=(0,31,0)
GPGPU-Sim PTX: 34800000 instructions simulated : ctaid=(13,5,0) tid=(1,11,0)
GPGPU-Sim PTX: 34900000 instructions simulated : ctaid=(12,5,0) tid=(5,24,0)
[...]
gpgpu_stall_shd_mem[t_mem][icnt_rc] = 0
gpgpu_stall_shd_mem[t_mem][data_port_stall] = 0
gpgpu_stall_shd_mem[s_mem][bk_conf] = 0
gpgpu_stall_shd_mem[gl_mem][bk_conf] = 0
gpgpu_stall_shd_mem[gl_mem][coal_stall] = 6164
gpgpu_stall_shd_mem[gl_mem][data_port_stall] = 0
gpgpu_stall_shd_mem[g_mem_ld][mshr_rc] = 0
gpgpu_stall_shd_mem[g_mem_ld][icnt_rc] = 0
gpgpu_stall_shd_mem[g_mem_ld][wb_icnt_rc] = 0
gpgpu_stall_shd_mem[g_mem_ld][wb_rsrv_fail] = 0
gpgpu_stall_shd_mem[g_mem_st][mshr_rc] = 0
gpgpu_stall_shd_mem[g_mem_st][icnt_rc] = 0
gpgpu_stall_shd_mem[g_mem_st][wb_icnt_rc] = 0
gpgpu_stall_shd_mem[g_mem_st][wb_rsrv_fail] = 0
gpgpu_stall_shd_mem[l_mem_ld][mshr_rc] = 0
gpgpu_stall_shd_mem[l_mem_ld][icnt_rc] = 0
gpgpu_stall_shd_mem[l_mem_ld][wb_icnt_rc] = 0
gpgpu_stall_shd_mem[l_mem_ld][wb_rsrv_fail] = 0
gpgpu_stall_shd_mem[l_mem_st][mshr_rc] = 0
gpgpu_stall_shd_mem[l_mem_st][icnt_rc] = 0
gpgpu_stall_shd_mem[l_mem_ld][wb_icnt_rc] = 0
gpgpu_stall_shd_mem[l_mem_ld][wb_rsrv_fail] = 0
gpu_reg_bank_conflict_stalls = 0
Warp Occupancy Distribution:
Stall:473093	W0_Idle:312795	W0_Scoreboard:244372	W1:628310	W2:332830	W3:220652	W4:145546	W5:108122	W6:95050	W7:77178	W8:59418	W9:54752	W10:45056	W11:39760	W12:35760	W13:32224	W14:30304	W15:27072	W16:28560	W17:22704	W18:20160	W19:19600	W20:19760	W21:17280	W22:17152	W23:16752	W24:17552	W25:15248	W26:14112	W27:13792	W28:15632	W29:17696	W30:19120	W31:22080	W32:1287648
traffic_breakdown_coretomem[CONST_ACC_R] = 120 {8:15,}
traffic_breakdown_coretomem[GLOBAL_ACC_W] = 327680 {40:8192,}
traffic_breakdown_coretomem[INST_ACC_R] = 480 {8:60,}
traffic_breakdown_memtocore[CONST_ACC_R] = 1080 {72:15,}
traffic_breakdown_memtocore[GLOBAL_ACC_W] = 65536 {8:8192,}
traffic_breakdown_memtocore[INST_ACC_R] = 8160 {136:60,}
maxmrqlatency = 48 
maxdqlatency = 0 
maxmflatency = 389 
averagemflatency = 151 
max_icnt2mem_latency = 51 
max_icnt2sh_latency = 180142 
mrq_lat_table:1049 	2 	26 	30 	20 	10 	0 	0 	0 	0 	0 	0 	0 	0 	0 	0 	0 	0 	0 	0 	0 	0 	0 	0 	0 	0 	0 	0 	0 	0 	0 	0 	
dq_lat_table:0 	0 	0 	0 	0 	0 	0 	0 	0 	0 	0 	0 	0 	0 	0 	0 	0 	0 	0 	0 	0 	0 	0 	0 	0 	0 	0 	0 	0 	0 	0 	0 	
mf_lat_table:0 	0 	0 	0 	0 	0 	0 	8100 	107 	0 	0 	0 	0 	0 	0 	0 	0 	0 	0 	0 	0 	0 	0 	0 	0 	0 	0 	0 	0 	0 	0 	0 	
icnt2mem_lat_table:0 	0 	0 	6084 	2142 	41 	0 	0 	0 	0 	0 	0 	0 	0 	0 	0 	0 	0 	0 	0 	0 	0 	0 	0 	
icnt2sh_lat_table:0 	0 	0 	2 	13 	0 	0 	0 	0 	0 	0 	160 	724 	652 	1012 	1760 	3244 	640 	0 	0 	0 	0 	0 	0 	
mf_lat_pw_table:0 	0 	0 	0 	0 	0 	0 	318 	2 	0 	0 	0 	0 	0 	0 	0 	0 	0 	0 	0 	0 	0 	0 	0 	0 	0 	0 	0 	0 	0 	0 	0 	
maximum concurrent accesses to same row:
dram[0]:         1         0         0         0         0         0         0         0         0         0         0         0         0         0         0         0 
dram[1]:         0         0         0         0         0         0         0         0         0         0         0         0         0         0         0         0 
dram[2]:         0         0         0         0         0         0         0         0         0         0         0         0         0         0         0         0 
dram[3]:         0         0         0         0         0         0         0         0         0         0         0         0         0         0         0         0 
dram[4]:         0         0         0         0         0         0         0         0         0         0         0         0         0         0         0         0 
dram[5]:         0         0         0         0         0         0         0         0         0         0         0         0         0         0         0         0 
maximum service time to same row:
dram[0]:       369         0         0         0      2872      2888     10677     13513         0         0         0         0         0         0         0         0 
dram[1]:      1509         0         0         0      2869      2885     10674     13510         0         0         0         0         0         0         0         0 
dram[2]:         0         0         0         0      2866      2878     10671     11674         0         0         0         0         0         0         0         0 
dram[3]:         0         0         0         0      2863      2875     10668     11671         0         0         0         0         0         0         0         0 
dram[4]:         0         0         0         0      2894      2872     13519     11668         0         0         0         0         0         0         0         0 
dram[5]:         0         0         0         0      2891      2869     13516     11665         0         0         0         0         0         0         0         0 
average row accesses per activate:
dram[0]:  1.000000      -nan      -nan      -nan 29.000000 27.000000 66.000000 64.000000      -nan      -nan      -nan      -nan      -nan      -nan      -nan      -nan 
dram[1]:  2.000000      -nan      -nan      -nan 29.000000 27.000000 66.000000 64.000000      -nan      -nan      -nan      -nan      -nan      -nan      -nan      -nan 
dram[2]:      -nan      -nan      -nan      -nan 29.000000 33.000000 66.000000 64.000000      -nan      -nan      -nan      -nan      -nan      -nan      -nan      -nan 
dram[3]:      -nan      -nan      -nan      -nan 29.000000 33.000000 66.000000 64.000000      -nan      -nan      -nan      -nan      -nan      -nan      -nan      -nan 
dram[4]:      -nan      -nan      -nan      -nan 27.000000 33.000000 64.000000 64.000000      -nan      -nan      -nan      -nan      -nan      -nan      -nan      -nan 
dram[5]:      -nan      -nan      -nan      -nan 27.000000 33.000000 64.000000 64.000000      -nan      -nan      -nan      -nan      -nan      -nan      -nan      -nan 
average row locality = 1137/28 = 40.607143
number of total memory accesses made:
dram[0]:         0         0         0         0         0         0         0         0         0         0         0         0         0         0         0         0 
dram[1]:         0         0         0         0         0         0         0         0         0         0         0         0         0         0         0         0 
dram[2]:         0         0         0         0         0         0         0         0         0         0         0         0         0         0         0         0 
dram[3]:         0         0         0         0         0         0         0         0         0         0         0         0         0         0         0         0 
dram[4]:         0         0         0         0         0         0         0         0         0         0         0         0         0         0         0         0 
dram[5]:         0         0         0         0         0         0         0         0         0         0         0         0         0         0         0         0 
total accesses: 0
min_bank_accesses = 0!
min_chip_accesses = 0!
number of total read accesses:
dram[0]:         3         0         0         0        10        10        32        32         0         0         0         0         0         0         0         0 
dram[1]:         2         0         0         0        10        10        32        32         0         0         0         0         0         0         0         0 
dram[2]:         0         0         0         0        10        12        32        32         0         0         0         0         0         0         0         0 
dram[3]:         0         0         0         0        10        12        32        32         0         0         0         0         0         0         0         0 
dram[4]:         0         0         0         0        10        12        32        32         0         0         0         0         0         0         0         0 
dram[5]:         0         0         0         0        10        12        32        32         0         0         0         0         0         0         0         0 
total reads: 517
min_bank_accesses = 0!
chip skew: 87/86 = 1.01
number of total write accesses:
dram[0]:         0         0         0         0        19        17        34        32         0         0         0         0         0         0         0         0 
dram[1]:         0         0         0         0        19        17        34        32         0         0         0         0         0         0         0         0 
dram[2]:         0         0         0         0        19        21        34        32         0         0         0         0         0         0         0         0 
dram[3]:         0         0         0         0        19        21        34        32         0         0         0         0         0         0         0         0 
dram[4]:         0         0         0         0        17        21        32        32         0         0         0         0         0         0         0         0 
dram[5]:         0         0         0         0        17        21        32        32         0         0         0         0         0         0         0         0 
total reads: 620
min_bank_accesses = 0!
chip skew: 106/102 = 1.04
average mf latency per bank:
dram[0]:       1300    none      none      none         886       921      1188      1189    none      none      none      none      none      none      none      none  
dram[1]:          0    none      none      none         875       908      1172      1173    none      none      none      none      none      none      none      none  
dram[2]:     none      none      none      none         863       939      1157      1221    none      none      none      none      none      none      none      none  
dram[3]:     none      none      none      none         852       927      1141      1205    none      none      none      none      none      none      none      none  
dram[4]:     none      none      none      none         943       910      1221      1189    none      none      none      none      none      none      none      none  
dram[5]:     none      none      none      none         930       897      1205      1173    none      none      none      none      none      none      none      none  
maximum mf latency per bank:
dram[0]:        278         0         0         0       326       314       265       253         0         0         0         0         0         0         0         0
dram[1]:          0         0         0         0       325       309       262       251         0         0         0         0         0         0         0         0
dram[2]:          0         0         0         0       324       389       260       258         0         0         0         0         0         0         0         0
dram[3]:          0         0         0         0       324       386       258       256         0         0         0         0         0         0         0         0
dram[4]:          0         0         0         0       304       363       258       254         0         0         0         0         0         0         0         0
dram[5]:          0         0         0         0       302       360       255       252         0         0         0         0         0         0         0         0
Memory Partition 0: 
Cache L2_bank_000:
MSHR contents

Cache L2_bank_001:
MSHR contents

In Dram Latency Queue (total = 0): 
DRAM[0]: 16 bks, busW=4 BL=8 CL=12, tRRD=2 tCCD=6, tRCD=12 tRAS=28 tRP=12 tRC=40
n_cmd=237788 n_nop=237503 n_act=7 n_pre=2 n_req=189 n_rd=174 n_write=102 bw_util=0.002321
n_activity=2498 dram_eff=0.221
bk0: 6a 237716i bk1: 0a 237786i bk2: 0a 237790i bk3: 0a 237790i bk4: 20a 237593i bk5: 20a 237559i bk6: 64a 237296i bk7: 64a 237314i bk8: 0a 237786i bk9: 0a 237786i bk10: 0a 237786i bk11: 0a 237787i bk12: 0a 237788i bk13: 0a 237788i bk14: 0a 237788i bk15: 0a 237788i 
dram_util_bins: 0 0 0 0 0 0 0 0 0 0
dram_eff_bins: 0 0 0 0 0 0 0 0 0 0
mrqq: max=4 avg=0.000920988
Memory Partition 1: 
Cache L2_bank_002:
MSHR contents

Cache L2_bank_003:
MSHR contents

In Dram Latency Queue (total = 0): 
DRAM[1]: 16 bks, busW=4 BL=8 CL=12, tRRD=2 tCCD=6, tRCD=12 tRAS=28 tRP=12 tRC=40
n_cmd=237788 n_nop=237509 n_act=5 n_pre=0 n_req=188 n_rd=172 n_write=102 bw_util=0.002305
n_activity=2409 dram_eff=0.2275
bk0: 4a 237768i bk1: 0a 237788i bk2: 0a 237789i bk3: 0a 237790i bk4: 20a 237593i bk5: 20a 237559i bk6: 64a 237296i bk7: 64a 237312i bk8: 0a 237786i bk9: 0a 237786i bk10: 0a 237786i bk11: 0a 237787i bk12: 0a 237788i bk13: 0a 237788i bk14: 0a 237788i bk15: 0a 237788i 
dram_util_bins: 0 0 0 0 0 0 0 0 0 0
dram_eff_bins: 0 0 0 0 0 0 0 0 0 0
mrqq: max=4 avg=0.000920988
Memory Partition 2: 
Cache L2_bank_004:
MSHR contents

Cache L2_bank_005:
MSHR contents

In Dram Latency Queue (total = 0): 
DRAM[2]: 16 bks, busW=4 BL=8 CL=12, tRRD=2 tCCD=6, tRCD=12 tRAS=28 tRP=12 tRC=40
n_cmd=237788 n_nop=237506 n_act=4 n_pre=0 n_req=192 n_rd=172 n_write=106 bw_util=0.002338
n_activity=2415 dram_eff=0.2302
bk0: 0a 237789i bk1: 0a 237790i bk2: 0a 237790i bk3: 0a 237790i bk4: 20a 237594i bk5: 24a 237518i bk6: 64a 237275i bk7: 64a 237309i bk8: 0a 237785i bk9: 0a 237786i bk10: 0a 237786i bk11: 0a 237787i bk12: 0a 237787i bk13: 0a 237787i bk14: 0a 237788i bk15: 0a 237788i 
dram_util_bins: 0 0 0 0 0 0 0 0 0 0
dram_eff_bins: 0 0 0 0 0 0 0 0 0 0
mrqq: max=6 avg=0.00159386
Memory Partition 3: 
Cache L2_bank_006:
MSHR contents

Cache L2_bank_007:
MSHR contents

In Dram Latency Queue (total = 0): 
DRAM[3]: 16 bks, busW=4 BL=8 CL=12, tRRD=2 tCCD=6, tRCD=12 tRAS=28 tRP=12 tRC=40
n_cmd=237788 n_nop=237506 n_act=4 n_pre=0 n_req=192 n_rd=172 n_write=106 bw_util=0.002338
n_activity=2415 dram_eff=0.2302
bk0: 0a 237789i bk1: 0a 237790i bk2: 0a 237790i bk3: 0a 237790i bk4: 20a 237594i bk5: 24a 237519i bk6: 64a 237276i bk7: 64a 237311i bk8: 0a 237785i bk9: 0a 237786i bk10: 0a 237786i bk11: 0a 237787i bk12: 0a 237787i bk13: 0a 237787i bk14: 0a 237788i bk15: 0a 237788i 
dram_util_bins: 0 0 0 0 0 0 0 0 0 0
dram_eff_bins: 0 0 0 0 0 0 0 0 0 0
mrqq: max=6 avg=0.00158965
Memory Partition 4: 
Cache L2_bank_008:
MSHR contents

Cache L2_bank_009:
MSHR contents

In Dram Latency Queue (total = 0): 
DRAM[4]: 16 bks, busW=4 BL=8 CL=12, tRRD=2 tCCD=6, tRCD=12 tRAS=28 tRP=12 tRC=40
n_cmd=237788 n_nop=237510 n_act=4 n_pre=0 n_req=188 n_rd=172 n_write=102 bw_util=0.002305
n_activity=2374 dram_eff=0.2308
bk0: 0a 237788i bk1: 0a 237790i bk2: 0a 237791i bk3: 0a 237791i bk4: 20a 237578i bk5: 24a 237542i bk6: 64a 237313i bk7: 64a 237308i bk8: 0a 237784i bk9: 0a 237785i bk10: 0a 237786i bk11: 0a 237787i bk12: 0a 237787i bk13: 0a 237787i bk14: 0a 237788i bk15: 0a 237788i 
dram_util_bins: 0 0 0 0 0 0 0 0 0 0
dram_eff_bins: 0 0 0 0 0 0 0 0 0 0
mrqq: max=4 avg=0.000954632
Memory Partition 5: 
Cache L2_bank_010:
MSHR contents

Cache L2_bank_011:
MSHR contents

In Dram Latency Queue (total = 0): 
DRAM[5]: 16 bks, busW=4 BL=8 CL=12, tRRD=2 tCCD=6, tRCD=12 tRAS=28 tRP=12 tRC=40
n_cmd=237788 n_nop=237510 n_act=4 n_pre=0 n_req=188 n_rd=172 n_write=102 bw_util=0.002305
n_activity=2374 dram_eff=0.2308
bk0: 0a 237788i bk1: 0a 237790i bk2: 0a 237791i bk3: 0a 237791i bk4: 20a 237578i bk5: 24a 237543i bk6: 64a 237314i bk7: 64a 237308i bk8: 0a 237784i bk9: 0a 237785i bk10: 0a 237786i bk11: 0a 237787i bk12: 0a 237787i bk13: 0a 237787i bk14: 0a 237788i bk15: 0a 237788i 
dram_util_bins: 0 0 0 0 0 0 0 0 0 0
dram_eff_bins: 0 0 0 0 0 0 0 0 0 0
mrqq: max=4 avg=0.000950426

========= L2 cache stats =========
L2_cache_bank[0]: Access = 717, Miss = 45, Miss_rate = 0.063, Pending_hits = 20, Reservation_fails = 379
L2_cache_bank[1]: Access = 672, Miss = 42, Miss_rate = 0.062, Pending_hits = 7, Reservation_fails = 0
L2_cache_bank[2]: Access = 702, Miss = 44, Miss_rate = 0.063, Pending_hits = 17, Reservation_fails = 157
L2_cache_bank[3]: Access = 672, Miss = 42, Miss_rate = 0.062, Pending_hits = 7, Reservation_fails = 0
L2_cache_bank[4]: Access = 672, Miss = 42, Miss_rate = 0.062, Pending_hits = 11, Reservation_fails = 46
L2_cache_bank[5]: Access = 704, Miss = 44, Miss_rate = 0.062, Pending_hits = 9, Reservation_fails = 91
L2_cache_bank[6]: Access = 672, Miss = 42, Miss_rate = 0.062, Pending_hits = 11, Reservation_fails = 46
L2_cache_bank[7]: Access = 704, Miss = 44, Miss_rate = 0.062, Pending_hits = 9, Reservation_fails = 91
L2_cache_bank[8]: Access = 672, Miss = 42, Miss_rate = 0.062, Pending_hits = 7, Reservation_fails = 0
L2_cache_bank[9]: Access = 704, Miss = 44, Miss_rate = 0.062, Pending_hits = 9, Reservation_fails = 69
L2_cache_bank[10]: Access = 672, Miss = 42, Miss_rate = 0.062, Pending_hits = 7, Reservation_fails = 0
L2_cache_bank[11]: Access = 704, Miss = 44, Miss_rate = 0.062, Pending_hits = 9, Reservation_fails = 69
L2_total_cache_accesses = 8267
L2_total_cache_misses = 517
L2_total_cache_miss_rate = 0.0625
L2_total_cache_pending_hits = 123
L2_total_cache_reservation_fails = 948
L2_total_cache_breakdown:
	L2_cache_stats_breakdown[CONST_ACC_R][HIT] = 11
	L2_cache_stats_breakdown[CONST_ACC_R][HIT_RESERVED] = 3
	L2_cache_stats_breakdown[CONST_ACC_R][MISS] = 1
	L2_cache_stats_breakdown[CONST_ACC_R][RESERVATION_FAIL] = 109
	L2_cache_stats_breakdown[GLOBAL_ACC_W][HIT] = 7572
	L2_cache_stats_breakdown[GLOBAL_ACC_W][HIT_RESERVED] = 108
	L2_cache_stats_breakdown[GLOBAL_ACC_W][MISS] = 512
	L2_cache_stats_breakdown[GLOBAL_ACC_W][RESERVATION_FAIL] = 504
	L2_cache_stats_breakdown[INST_ACC_R][HIT] = 44
	L2_cache_stats_breakdown[INST_ACC_R][HIT_RESERVED] = 12
	L2_cache_stats_breakdown[INST_ACC_R][MISS] = 4
	L2_cache_stats_breakdown[INST_ACC_R][RESERVATION_FAIL] = 335
L2_cache_data_port_util = 0.004
L2_cache_fill_port_util = 0.001

icnt_total_pkts_mem_to_simt=8537
icnt_total_pkts_simt_to_mem=16459
LD_mem_lat_dist  0 0 0 0 0 0 0 0 0 0 0 0 0 0 0 0 0 0 0 0 0 0 0 0 0 0 0
ST_mem_lat_dist  0 0 0 0 0 0 0 0 0 0 0 0 0 0 0 0 0 0 0 0 0 0 0 0 0 0 0
----------------------------Interconnect-DETAILS--------------------------------
Class 0:
Packet latency average = 8.163
	minimum = 6
	maximum = 34
Network latency average = 7.35382
	minimum = 6
	maximum = 34
Slowest packet = 14
Flit latency average = 7.11894
	minimum = 6
	maximum = 34
Slowest flit = 14
Fragmentation average = 0
	minimum = 0
	maximum = 0
Injected packet rate average = 0.00339936
	minimum = 0.00251467 (at node 6)
	maximum = 0.00398017 (at node 15)
Accepted packet rate average = 0.00339936
	minimum = 0.00251467 (at node 6)
	maximum = 0.00398017 (at node 15)
Injected flit rate average = 0.00513913
	minimum = 0.00373037 (at node 16)
	maximum = 0.0074885 (at node 9)
Accepted flit rate average= 0.00513913
	minimum = 0.00261459 (at node 6)
	maximum = 0.00781601 (at node 20)
Injected packet length average = 1.51179
Accepted packet length average = 1.51179
Total in-flight flits = 0 (0 measured)
====== Overall Traffic Statistics ======
====== Traffic class 0 ======
Packet latency average = 8.163 (1 samples)
	minimum = 6 (1 samples)
	maximum = 34 (1 samples)
Network latency average = 7.35382 (1 samples)
	minimum = 6 (1 samples)
	maximum = 34 (1 samples)
Flit latency average = 7.11894 (1 samples)
	minimum = 6 (1 samples)
	maximum = 34 (1 samples)
Fragmentation average = 0 (1 samples)
	minimum = 0 (1 samples)
	maximum = 0 (1 samples)
Injected packet rate average = 0.00339936 (1 samples)
	minimum = 0.00251467 (1 samples)
	maximum = 0.00398017 (1 samples)
Accepted packet rate average = 0.00339936 (1 samples)
	minimum = 0.00251467 (1 samples)
	maximum = 0.00398017 (1 samples)
Injected flit rate average = 0.00513913 (1 samples)
	minimum = 0.00373037 (1 samples)
	maximum = 0.0074885 (1 samples)
Accepted flit rate average = 0.00513913 (1 samples)
	minimum = 0.00261459 (1 samples)
	maximum = 0.00781601 (1 samples)
Injected packet size average = 1.51179 (1 samples)
Accepted packet size average = 1.51179 (1 samples)
Hops average = 1 (1 samples)
----------------------------END-of-Interconnect-DETAILS-------------------------


gpgpu_simulation_time = 0 days, 0 hrs, 2 min, 23 sec (143 sec)
gpgpu_simulation_rate = 366850 (inst/sec)
gpgpu_simulation_rate = 1259 (cycle/sec)
