

        *** GPGPU-Sim Simulator Version 3.2.2  [build 17315] ***


GPGPU-Sim PTX: simulation mode 0 (can change with PTX_SIM_MODE_FUNC environment variable:
               1=functional simulation only, 0=detailed performance simulator)
GPGPU-Sim: Configuration options:

-network_mode                           1 # Interconnection network mode
-inter_config_file   config_fermi_islip.icnt # Interconnection network config file
-gpgpu_ptx_use_cuobjdump                    1 # Use cuobjdump to extract ptx and sass from binaries
-gpgpu_experimental_lib_support                    0 # Try to extract code from cuda libraries [Broken because of unknown cudaGetExportTable]
-gpgpu_ptx_convert_to_ptxplus                    0 # Convert SASS (native ISA) to ptxplus and run ptxplus
-gpgpu_ptx_force_max_capability                   20 # Force maximum compute capability
-gpgpu_ptx_inst_debug_to_file                    0 # Dump executed instructions' debug information to file
-gpgpu_ptx_inst_debug_file       inst_debug.txt # Executed instructions' debug output file
-gpgpu_ptx_inst_debug_thread_uid                    1 # Thread UID for executed instructions' debug output
-gpgpu_simd_model                       1 # 1 = post-dominator
-gpgpu_shader_core_pipeline              1536:32 # shader core pipeline config, i.e., {<nthread>:<warpsize>}
-gpgpu_tex_cache:l1  4:128:24,L:R:m:N,F:128:4,128:2 # per-shader L1 texture cache  (READ-ONLY) config  {<nsets>:<bsize>:<assoc>,<rep>:<wr>:<alloc>:<wr_alloc>,<mshr>:<N>:<merge>,<mq>:<rf>}
-gpgpu_const_cache:l1 64:64:2,L:R:f:N,A:2:32,4 # per-shader L1 constant memory cache  (READ-ONLY) config  {<nsets>:<bsize>:<assoc>,<rep>:<wr>:<alloc>:<wr_alloc>,<mshr>:<N>:<merge>,<mq>} 
-gpgpu_cache:il1     4:128:4,L:R:f:N,A:2:32,4 # shader L1 instruction cache config  {<nsets>:<bsize>:<assoc>,<rep>:<wr>:<alloc>:<wr_alloc>,<mshr>:<N>:<merge>,<mq>} 
-gpgpu_cache:dl1     32:128:4,L:L:m:N,A:32:8,8 # per-shader L1 data cache config  {<nsets>:<bsize>:<assoc>,<rep>:<wr>:<alloc>:<wr_alloc>,<mshr>:<N>:<merge>,<mq> | none}
-gpgpu_cache:dl1PrefL1                 none # per-shader L1 data cache config  {<nsets>:<bsize>:<assoc>,<rep>:<wr>:<alloc>:<wr_alloc>,<mshr>:<N>:<merge>,<mq> | none}
-gpgpu_cache:dl1PreShared                 none # per-shader L1 data cache config  {<nsets>:<bsize>:<assoc>,<rep>:<wr>:<alloc>:<wr_alloc>,<mshr>:<N>:<merge>,<mq> | none}
-gmem_skip_L1D                          0 # global memory access skip L1D cache (implements -Xptxas -dlcm=cg, default=no skip)
-gpgpu_perfect_mem                      0 # enable perfect memory mode (no cache miss)
-n_regfile_gating_group                    4 # group of lanes that should be read/written together)
-gpgpu_clock_gated_reg_file                    0 # enable clock gated reg file for power calculations
-gpgpu_clock_gated_lanes                    0 # enable clock gated lanes for power calculations
-gpgpu_shader_registers                32768 # Number of registers per shader core. Limits number of concurrent CTAs. (default 8192)
-gpgpu_shader_cta                       8 # Maximum number of concurrent CTAs in shader (default 8)
-gpgpu_n_clusters                      15 # number of processing clusters
-gpgpu_n_cores_per_cluster                    1 # number of simd cores per cluster
-gpgpu_n_cluster_ejection_buffer_size                    8 # number of packets in ejection buffer
-gpgpu_n_ldst_response_buffer_size                    2 # number of response packets in ld/st unit ejection buffer
-gpgpu_shmem_size                   16384 # Size of shared memory per shader core (default 16kB)
-gpgpu_shmem_size                   49152 # Size of shared memory per shader core (default 16kB)
-gpgpu_shmem_size_PrefL1                16384 # Size of shared memory per shader core (default 16kB)
-gpgpu_shmem_size_PrefShared                16384 # Size of shared memory per shader core (default 16kB)
-gpgpu_shmem_num_banks                   32 # Number of banks in the shared memory in each shader core (default 16)
-gpgpu_shmem_limited_broadcast                    0 # Limit shared memory to do one broadcast per cycle (default on)
-gpgpu_shmem_warp_parts                    1 # Number of portions a warp is divided into for shared memory bank conflict check 
-gpgpu_warpdistro_shader                   -1 # Specify which shader core to collect the warp size distribution from
-gpgpu_warp_issue_shader                    0 # Specify which shader core to collect the warp issue distribution from
-gpgpu_local_mem_map                    1 # Mapping from local memory space address to simulated GPU physical address space (default = enabled)
-gpgpu_num_reg_banks                   16 # Number of register banks (default = 8)
-gpgpu_reg_bank_use_warp_id                    0 # Use warp ID in mapping registers to banks (default = off)
-gpgpu_operand_collector_num_units_sp                    6 # number of collector units (default = 4)
-gpgpu_operand_collector_num_units_sfu                    8 # number of collector units (default = 4)
-gpgpu_operand_collector_num_units_mem                    2 # number of collector units (default = 2)
-gpgpu_operand_collector_num_units_gen                    0 # number of collector units (default = 0)
-gpgpu_operand_collector_num_in_ports_sp                    2 # number of collector unit in ports (default = 1)
-gpgpu_operand_collector_num_in_ports_sfu                    1 # number of collector unit in ports (default = 1)
-gpgpu_operand_collector_num_in_ports_mem                    1 # number of collector unit in ports (default = 1)
-gpgpu_operand_collector_num_in_ports_gen                    0 # number of collector unit in ports (default = 0)
-gpgpu_operand_collector_num_out_ports_sp                    2 # number of collector unit in ports (default = 1)
-gpgpu_operand_collector_num_out_ports_sfu                    1 # number of collector unit in ports (default = 1)
-gpgpu_operand_collector_num_out_ports_mem                    1 # number of collector unit in ports (default = 1)
-gpgpu_operand_collector_num_out_ports_gen                    0 # number of collector unit in ports (default = 0)
-gpgpu_coalesce_arch                   13 # Coalescing arch (default = 13, anything else is off for now)
-gpgpu_num_sched_per_core                    2 # Number of warp schedulers per core
-gpgpu_max_insn_issue_per_warp                    1 # Max number of instructions that can be issued per warp in one cycle by scheduler
-gpgpu_simt_core_sim_order                    1 # Select the simulation order of cores in a cluster (0=Fix, 1=Round-Robin)
-gpgpu_pipeline_widths        2,1,1,2,1,1,2 # Pipeline widths ID_OC_SP,ID_OC_SFU,ID_OC_MEM,OC_EX_SP,OC_EX_SFU,OC_EX_MEM,EX_WB
-gpgpu_num_sp_units                     2 # Number of SP units (default=1)
-gpgpu_num_sfu_units                    1 # Number of SF units (default=1)
-gpgpu_num_mem_units                    1 # Number if ldst units (default=1) WARNING: not hooked up to anything
-gpgpu_scheduler                      gto # Scheduler configuration: < lrr | gto | two_level_active > If two_level_active:<num_active_warps>:<inner_prioritization>:<outer_prioritization>For complete list of prioritization values see shader.h enum scheduler_prioritization_typeDefault: gto
-gpgpu_dram_scheduler                    1 # 0 = fifo, 1 = FR-FCFS (defaul)
-gpgpu_dram_partition_queues              8:8:8:8 # i2$:$2d:d2$:$2i
-l2_ideal                               0 # Use a ideal L2 cache that always hit
-gpgpu_cache:dl2     64:128:8,L:B:m:W,A:32:4,4:0,32 # unified banked L2 data cache config  {<nsets>:<bsize>:<assoc>,<rep>:<wr>:<alloc>:<wr_alloc>,<mshr>:<N>:<merge>,<mq>}
-gpgpu_cache:dl2_texture_only                    0 # L2 cache used for texture only
-gpgpu_n_mem                            6 # number of memory modules (e.g. memory controllers) in gpu
-gpgpu_n_sub_partition_per_mchannel                    2 # number of memory subpartition in each memory module
-gpgpu_n_mem_per_ctrlr                    2 # number of memory chips per memory controller
-gpgpu_memlatency_stat                   14 # track and display latency statistics 0x2 enables MC, 0x4 enables queue logs
-gpgpu_frfcfs_dram_sched_queue_size                   16 # 0 = unlimited (default); # entries per chip
-gpgpu_dram_return_queue_size                  116 # 0 = unlimited (default); # entries per chip
-gpgpu_dram_buswidth                    4 # default = 4 bytes (8 bytes per cycle at DDR)
-gpgpu_dram_burst_length                    8 # Burst length of each DRAM request (default = 4 data bus cycle)
-dram_data_command_freq_ratio                    4 # Frequency ratio between DRAM data bus and command bus (default = 2 times, i.e. DDR)
-gpgpu_dram_timing_opt nbk=16:CCD=2:RRD=6:RCD=12:RAS=28:RP=12:RC=40: CL=12:WL=4:CDLR=5:WR=12:nbkgrp=4:CCDL=3:RTPL=2 # DRAM timing parameters = {nbk:tCCD:tRRD:tRCD:tRAS:tRP:tRC:CL:WL:tCDLR:tWR:nbkgrp:tCCDL:tRTPL}
-rop_latency                          120 # ROP queue latency (default 85)
-dram_latency                         100 # DRAM latency (default 30)
-gpgpu_mem_addr_mapping dramid@8;00000000.00000000.00000000.00000000.0000RRRR.RRRRRRRR.BBBCCCCB.CCSSSSSS # mapping memory address to dram model {dramid@<start bit>;<memory address map>}
-gpgpu_mem_addr_test                    0 # run sweep test to check address mapping for aliased address
-gpgpu_mem_address_mask                    1 # 0 = old addressing mask, 1 = new addressing mask, 2 = new add. mask + flipped bank sel and chip sel bits
-gpuwattch_xml_file         gpuwattch.xml # GPUWattch XML file
-power_simulation_enabled                    0 # Turn on power simulator (1=On, 0=Off)
-power_per_cycle_dump                    0 # Dump detailed power output each cycle
-power_trace_enabled                    0 # produce a file for the power trace (1=On, 0=Off)
-power_trace_zlevel                     6 # Compression level of the power trace output log (0=no comp, 9=highest)
-steady_power_levels_enabled                    0 # produce a file for the steady power levels (1=On, 0=Off)
-steady_state_definition                  8:4 # allowed deviation:number of samples
-gpgpu_max_cycle                        0 # terminates gpu simulation early (0 = no limit)
-gpgpu_max_insn                         0 # terminates gpu simulation early (0 = no limit)
-gpgpu_max_cta                          0 # terminates gpu simulation early (0 = no limit)
-gpgpu_runtime_stat                   500 # display runtime statistics such as dram utilization {<freq>:<flag>}
-liveness_message_freq                    1 # Minimum number of seconds between simulation liveness messages (0 = always print)
-gpgpu_flush_l1_cache                    0 # Flush L1 cache at the end of each kernel call
-gpgpu_flush_l2_cache                    0 # Flush L2 cache at the end of each kernel call
-gpgpu_deadlock_detect                    1 # Stop the simulation at deadlock (1=on (default), 0=off)
-gpgpu_ptx_instruction_classification                    0 # if enabled will classify ptx instruction types per kernel (Max 255 kernels now)
-gpgpu_ptx_sim_mode                     0 # Select between Performance (default) or Functional simulation (1)
-gpgpu_clock_domains 700.0:700.0:700.0:924.0 # Clock Domain Frequencies in MhZ {<Core Clock>:<ICNT Clock>:<L2 Clock>:<DRAM Clock>}
-gpgpu_max_concurrent_kernel                    8 # maximum kernels that can run concurrently on GPU
-gpgpu_cflog_interval                    0 # Interval between each snapshot in control flow logger
-visualizer_enabled                     0 # Turn on visualizer output (1=On, 0=Off)
-visualizer_outputfile                 NULL # Specifies the output log file for visualizer
-visualizer_zlevel                      6 # Compression level of the visualizer output log (0=no comp, 9=highest)
-trace_enabled                          0 # Turn on traces
-trace_components                    none # comma seperated list of traces to enable. Complete list found in trace_streams.tup. Default none
-trace_sampling_core                    0 # The core which is printed using CORE_DPRINTF. Default 0
-trace_sampling_memory_partition                   -1 # The memory partition which is printed using MEMPART_DPRINTF. Default -1 (i.e. all)
-enable_ptx_file_line_stats                    1 # Turn on PTX source line statistic profiling. (1 = On)
-ptx_line_stats_filename gpgpu_inst_stats.txt # Output file for PTX source line statistics.
-save_embedded_ptx                      0 # saves ptx files embedded in binary as <n>.ptx
-keep                                   0 # keep intermediate files created by GPGPU-Sim when interfacing with external programs
-gpgpu_ptx_save_converted_ptxplus                    0 # Saved converted ptxplus to a file
-ptx_opcode_latency_int         4,13,4,5,145 # Opcode latencies for integers <ADD,MAX,MUL,MAD,DIV>Default 1,1,19,25,145
-ptx_opcode_latency_fp          4,13,4,5,39 # Opcode latencies for single precision floating points <ADD,MAX,MUL,MAD,DIV>Default 1,1,1,1,30
-ptx_opcode_latency_dp         8,19,8,8,330 # Opcode latencies for double precision floating points <ADD,MAX,MUL,MAD,DIV>Default 8,8,8,8,335
-ptx_opcode_initiation_int            1,2,2,1,8 # Opcode initiation intervals for integers <ADD,MAX,MUL,MAD,DIV>Default 1,1,4,4,32
-ptx_opcode_initiation_fp            1,2,1,1,4 # Opcode initiation intervals for single precision floating points <ADD,MAX,MUL,MAD,DIV>Default 1,1,1,1,5
-ptx_opcode_initiation_dp         8,16,8,8,130 # Opcode initiation intervals for double precision floating points <ADD,MAX,MUL,MAD,DIV>Default 8,8,8,8,130
DRAM Timing Options:
nbk                                    16 # number of banks
CCD                                     2 # column to column delay
RRD                                     6 # minimal delay between activation of rows in different banks
RCD                                    12 # row to column delay
RAS                                    28 # time needed to activate row
RP                                     12 # time needed to precharge (deactivate) row
RC                                     40 # row cycle time
CDLR                                    5 # switching from write to read (changes tWTR)
WR                                     12 # last data-in to row precharge
CL                                     12 # CAS latency
WL                                      4 # Write latency
nbkgrp                                  4 # number of bank groups
CCDL                                    3 # column to column delay between accesses to different bank groups
RTPL                                    2 # read to precharge delay between accesses to different bank groups
Total number of memory sub partition = 12
addr_dec_mask[CHIP]  = 0000000000000000 	high:64 low:0
addr_dec_mask[BK]    = 000000000000e100 	high:16 low:8
addr_dec_mask[ROW]   = 000000000fff0000 	high:28 low:16
addr_dec_mask[COL]   = 0000000000001eff 	high:13 low:0
addr_dec_mask[BURST] = 000000000000003f 	high:6 low:0
sub_partition_id_mask = 0000000000000100
GPGPU-Sim uArch: clock freqs: 700000000.000000:700000000.000000:700000000.000000:924000000.000000
GPGPU-Sim uArch: clock periods: 0.00000000142857142857:0.00000000142857142857:0.00000000142857142857:0.00000000108225108225
*** Initializing Memory Statistics ***
GPGPU-Sim uArch: interconnect node map (shaderID+MemID to icntID)
GPGPU-Sim uArch: Memory nodes ID start from index: 15
GPGPU-Sim uArch:    0   1   2   3   4
GPGPU-Sim uArch:    5   6   7   8   9
GPGPU-Sim uArch:   10  11  12  13  14
GPGPU-Sim uArch:   15  16  17  18  19
GPGPU-Sim uArch:   20  21  22  23  24
GPGPU-Sim uArch:   25  26
GPGPU-Sim uArch: interconnect node reverse map (icntID to shaderID+MemID)
GPGPU-Sim uArch: Memory nodes start from ID: 15
GPGPU-Sim uArch:    0   1   2   3   4
GPGPU-Sim uArch:    5   6   7   8   9
GPGPU-Sim uArch:   10  11  12  13  14
GPGPU-Sim uArch:   15  16  17  18  19
GPGPU-Sim uArch:   20  21  22  23  24
GPGPU-Sim uArch:   25  26
35e4989e7e2383a1c0ff536b7ce586fc  /afs/tu-berlin.de/home/t/tobias.fuchs/irb-ubuntu/Dokumente/new4/MCS1415/CUDA/assignment1/gpumcs/gpu_out
GPGPU-Sim uArch: performance model initialization complete.
GPGPU-Sim PTX: __cudaRegisterFatBinary, fat_cubin_handle = 1, filename=gpu_julia.cu
self exe links to: /afs/tu-berlin.de/home/t/tobias.fuchs/irb-ubuntu/Dokumente/new4/MCS1415/CUDA/assignment1/gpumcs/gpu_out
Running md5sum using "md5sum /afs/tu-berlin.de/home/t/tobias.fuchs/irb-ubuntu/Dokumente/new4/MCS1415/CUDA/assignment1/gpumcs/gpu_out "
Running cuobjdump using "$CUDA_INSTALL_PATH/bin/cuobjdump -ptx -elf -sass /afs/tu-berlin.de/home/t/tobias.fuchs/irb-ubuntu/Dokumente/new4/MCS1415/CUDA/assignment1/gpumcs/gpu_out > _cuobjdump_complete_output_bbHOs8"
Parsing file _cuobjdump_complete_output_bbHOs8
######### cuobjdump parser ########
## Adding new section ELF
Adding arch: sm_10
Adding identifier: gpu_julia.cu
## Adding new section PTX
Adding ptx filename: _cuobjdump_1.ptx
Adding arch: sm_10
Adding identifier: gpu_julia.cu
Done parsing!!!
GPGPU-Sim PTX: __cudaRegisterFunction _Z12calc_fractaliiffPh : hostFun 0x0x401073, fat_cubin_handle = 1
GPGPU-Sim PTX: instruction assembly for function '_Z12calc_fractaliiffPh'...   done.
GPGPU-Sim PTX: finding reconvergence points for '_Z12calc_fractaliiffPh'...
GPGPU-Sim PTX: Finding dominators for '_Z12calc_fractaliiffPh'...
GPGPU-Sim PTX: Finding immediate dominators for '_Z12calc_fractaliiffPh'...
GPGPU-Sim PTX: Finding postdominators for '_Z12calc_fractaliiffPh'...
GPGPU-Sim PTX: Finding immediate postdominators for '_Z12calc_fractaliiffPh'...
GPGPU-Sim PTX: pre-decoding instructions for '_Z12calc_fractaliiffPh'...
GPGPU-Sim PTX: reconvergence points for _Z12calc_fractaliiffPh...
GPGPU-Sim PTX:  1 (potential) branch divergence @  PC=0x100 (_1.ptx:101) @%p1 bra $Lt_0_258;
GPGPU-Sim PTX:    immediate post dominator      @  PC=0x158 (_1.ptx:117) ld.param.s32 %r4, [__cudaparm__Z12calc_fractaliiffPh_width];
GPGPU-Sim PTX:  2 (potential) branch divergence @  PC=0x150 (_1.ptx:114) @%p2 bra $Lt_0_2306;
GPGPU-Sim PTX:    immediate post dominator      @  PC=0x158 (_1.ptx:117) ld.param.s32 %r4, [__cudaparm__Z12calc_fractaliiffPh_width];
GPGPU-Sim PTX: ... end of reconvergence points for _Z12calc_fractaliiffPh
GPGPU-Sim PTX: ... done pre-decoding instructions for '_Z12calc_fractaliiffPh'.
GPGPU-Sim PTX: finished parsing EMBEDDED .ptx file _1.ptx
Adding _cuobjdump_1.ptx with cubin handle 1
GPGPU-Sim PTX: extracting embedded .ptx to temporary file "_ptx_rMTbgl"
Running: cat _ptx_rMTbgl | sed 's/.version 1.5/.version 1.4/' | sed 's/, texmode_independent//' | sed 's/\(\.extern \.const\[1\] .b8 \w\+\)\[\]/\1\[1\]/' | sed 's/const\[.\]/const\[0\]/g' > _ptx2_p4W53x
GPGPU-Sim PTX: generating ptxinfo using "$CUDA_INSTALL_PATH/bin/ptxas --gpu-name=sm_20 -v _ptx2_p4W53x --output-file  /dev/null 2> _ptx_rMTbglinfo"
GPGPU-Sim PTX: Kernel '_Z12calc_fractaliiffPh' : regs=9, lmem=0, smem=0, cmem=60
GPGPU-Sim PTX: removing ptxinfo using "rm -f _ptx_rMTbgl _ptx2_p4W53x _ptx_rMTbglinfo"
GPGPU-Sim PTX: loading globals with explicit initializers... 
GPGPU-Sim PTX: finished loading globals (0 bytes total).
GPGPU-Sim PTX: loading constants with explicit initializers...  done.

GPGPU-Sim PTX: cudaLaunch for 0x0x401073 (mode=performance simulation) on stream 0
GPGPU-Sim PTX: pushing kernel '_Z12calc_fractaliiffPh' to stream 0, gridDim= (32,32,1) blockDim = (8,8,1) 
kernel '_Z12calc_fractaliiffPh' transfer to GPU hardware scheduler
GPGPU-Sim uArch: Shader 1 bind to kernel 1 '_Z12calc_fractaliiffPh'
GPGPU-Sim uArch: CTA/core = 8, limited by: cta_limit
GPGPU-Sim uArch: core:  1, cta: 0 initialized @(1,0)
GPGPU-Sim uArch: Shader 2 bind to kernel 1 '_Z12calc_fractaliiffPh'
GPGPU-Sim uArch: core:  2, cta: 0 initialized @(1,0)
GPGPU-Sim uArch: Shader 3 bind to kernel 1 '_Z12calc_fractaliiffPh'
GPGPU-Sim uArch: core:  3, cta: 0 initialized @(1,0)
GPGPU-Sim uArch: Shader 4 bind to kernel 1 '_Z12calc_fractaliiffPh'
GPGPU-Sim uArch: core:  4, cta: 0 initialized @(1,0)
GPGPU-Sim uArch: Shader 5 bind to kernel 1 '_Z12calc_fractaliiffPh'
GPGPU-Sim uArch: core:  5, cta: 0 initialized @(1,0)
GPGPU-Sim uArch: Shader 6 bind to kernel 1 '_Z12calc_fractaliiffPh'
GPGPU-Sim uArch: core:  6, cta: 0 initialized @(1,0)
GPGPU-Sim uArch: Shader 7 bind to kernel 1 '_Z12calc_fractaliiffPh'
GPGPU-Sim uArch: core:  7, cta: 0 initialized @(1,0)
GPGPU-Sim uArch: Shader 8 bind to kernel 1 '_Z12calc_fractaliiffPh'
GPGPU-Sim uArch: core:  8, cta: 0 initialized @(1,0)
GPGPU-Sim uArch: Shader 9 bind to kernel 1 '_Z12calc_fractaliiffPh'
GPGPU-Sim uArch: core:  9, cta: 0 initialized @(1,0)
GPGPU-Sim uArch: Shader 10 bind to kernel 1 '_Z12calc_fractaliiffPh'
GPGPU-Sim uArch: core: 10, cta: 0 initialized @(1,0)
GPGPU-Sim uArch: Shader 11 bind to kernel 1 '_Z12calc_fractaliiffPh'
GPGPU-Sim uArch: core: 11, cta: 0 initialized @(1,0)
GPGPU-Sim uArch: Shader 12 bind to kernel 1 '_Z12calc_fractaliiffPh'
GPGPU-Sim uArch: core: 12, cta: 0 initialized @(1,0)
GPGPU-Sim uArch: Shader 13 bind to kernel 1 '_Z12calc_fractaliiffPh'
GPGPU-Sim uArch: core: 13, cta: 0 initialized @(1,0)
GPGPU-Sim uArch: Shader 14 bind to kernel 1 '_Z12calc_fractaliiffPh'
GPGPU-Sim uArch: core: 14, cta: 0 initialized @(1,0)
GPGPU-Sim uArch: Shader 0 bind to kernel 1 '_Z12calc_fractaliiffPh'
GPGPU-Sim uArch: core:  0, cta: 0 initialized @(1,0)
GPGPU-Sim uArch: core:  1, cta: 1 initialized @(2,0)
GPGPU-Sim uArch: core:  2, cta: 1 initialized @(2,0)
GPGPU-Sim uArch: core:  3, cta: 1 initialized @(2,0)
GPGPU-Sim uArch: core:  4, cta: 1 initialized @(2,0)
GPGPU-Sim uArch: core:  5, cta: 1 initialized @(2,0)
GPGPU-Sim uArch: core:  6, cta: 1 initialized @(2,0)
GPGPU-Sim uArch: core:  7, cta: 1 initialized @(2,0)
GPGPU-Sim uArch: core:  8, cta: 1 initialized @(2,0)
GPGPU-Sim uArch: core:  9, cta: 1 initialized @(2,0)
GPGPU-Sim uArch: core: 10, cta: 1 initialized @(2,0)
GPGPU-Sim uArch: core: 11, cta: 1 initialized @(2,0)
GPGPU-Sim uArch: core: 12, cta: 1 initialized @(2,0)
GPGPU-Sim uArch: core: 13, cta: 1 initialized @(2,0)
GPGPU-Sim uArch: core: 14, cta: 1 initialized @(2,0)
GPGPU-Sim uArch: core:  0, cta: 1 initialized @(2,0)
GPGPU-Sim uArch: core:  1, cta: 2 initialized @(3,0)
GPGPU-Sim uArch: core:  2, cta: 2 initialized @(3,0)
GPGPU-Sim uArch: core:  3, cta: 2 initialized @(3,0)
GPGPU-Sim uArch: core:  4, cta: 2 initialized @(3,0)
GPGPU-Sim uArch: core:  5, cta: 2 initialized @(3,0)
GPGPU-Sim uArch: core:  6, cta: 2 initialized @(3,0)
GPGPU-Sim uArch: core:  7, cta: 2 initialized @(3,0)
GPGPU-Sim uArch: core:  8, cta: 2 initialized @(3,0)
GPGPU-Sim uArch: core:  9, cta: 2 initialized @(3,0)
GPGPU-Sim uArch: core: 10, cta: 2 initialized @(3,0)
GPGPU-Sim uArch: core: 11, cta: 2 initialized @(3,0)
GPGPU-Sim uArch: core: 12, cta: 2 initialized @(3,0)
GPGPU-Sim uArch: core: 13, cta: 2 initialized @(3,0)
GPGPU-Sim uArch: core: 14, cta: 2 initialized @(3,0)
GPGPU-Sim uArch: core:  0, cta: 2 initialized @(3,0)
GPGPU-Sim uArch: core:  1, cta: 3 initialized @(4,0)
GPGPU-Sim uArch: core:  2, cta: 3 initialized @(4,0)
GPGPU-Sim uArch: core:  3, cta: 3 initialized @(4,0)
GPGPU-Sim uArch: core:  4, cta: 3 initialized @(4,0)
GPGPU-Sim uArch: core:  5, cta: 3 initialized @(4,0)
GPGPU-Sim uArch: core:  6, cta: 3 initialized @(4,0)
GPGPU-Sim uArch: core:  7, cta: 3 initialized @(4,0)
GPGPU-Sim uArch: core:  8, cta: 3 initialized @(4,0)
GPGPU-Sim uArch: core:  9, cta: 3 initialized @(4,0)
GPGPU-Sim uArch: core: 10, cta: 3 initialized @(4,0)
GPGPU-Sim uArch: core: 11, cta: 3 initialized @(4,0)
GPGPU-Sim uArch: core: 12, cta: 3 initialized @(4,0)
GPGPU-Sim uArch: core: 13, cta: 3 initialized @(4,0)
GPGPU-Sim uArch: core: 14, cta: 3 initialized @(4,0)
GPGPU-Sim uArch: core:  0, cta: 3 initialized @(4,0)
GPGPU-Sim uArch: core:  1, cta: 4 initialized @(5,0)
GPGPU-Sim uArch: core:  2, cta: 4 initialized @(5,0)
GPGPU-Sim uArch: core:  3, cta: 4 initialized @(5,0)
GPGPU-Sim uArch: core:  4, cta: 4 initialized @(5,0)
GPGPU-Sim uArch: core:  5, cta: 4 initialized @(5,0)
GPGPU-Sim uArch: core:  6, cta: 4 initialized @(5,0)
GPGPU-Sim uArch: core:  7, cta: 4 initialized @(5,0)
GPGPU-Sim uArch: core:  8, cta: 4 initialized @(5,0)
GPGPU-Sim uArch: core:  9, cta: 4 initialized @(5,0)
GPGPU-Sim uArch: core: 10, cta: 4 initialized @(5,0)
GPGPU-Sim uArch: core: 11, cta: 4 initialized @(5,0)
GPGPU-Sim uArch: core: 12, cta: 4 initialized @(5,0)
GPGPU-Sim uArch: core: 13, cta: 4 initialized @(5,0)
GPGPU-Sim uArch: core: 14, cta: 4 initialized @(5,0)
GPGPU-Sim uArch: core:  0, cta: 4 initialized @(5,0)
GPGPU-Sim uArch: core:  1, cta: 5 initialized @(6,0)
GPGPU-Sim uArch: core:  2, cta: 5 initialized @(6,0)
GPGPU-Sim uArch: core:  3, cta: 5 initialized @(6,0)
GPGPU-Sim uArch: core:  4, cta: 5 initialized @(6,0)
GPGPU-Sim uArch: core:  5, cta: 5 initialized @(6,0)
GPGPU-Sim uArch: core:  6, cta: 5 initialized @(6,0)
GPGPU-Sim uArch: core:  7, cta: 5 initialized @(6,0)
GPGPU-Sim uArch: core:  8, cta: 5 initialized @(6,0)
GPGPU-Sim uArch: core:  9, cta: 5 initialized @(6,0)
GPGPU-Sim uArch: core: 10, cta: 5 initialized @(6,0)
GPGPU-Sim uArch: core: 11, cta: 5 initialized @(6,0)
GPGPU-Sim uArch: core: 12, cta: 5 initialized @(6,0)
GPGPU-Sim uArch: core: 13, cta: 5 initialized @(6,0)
GPGPU-Sim uArch: core: 14, cta: 5 initialized @(6,0)
GPGPU-Sim uArch: core:  0, cta: 5 initialized @(6,0)
GPGPU-Sim uArch: core:  1, cta: 6 initialized @(7,0)
GPGPU-Sim uArch: core:  2, cta: 6 initialized @(7,0)
GPGPU-Sim uArch: core:  3, cta: 6 initialized @(7,0)
GPGPU-Sim uArch: core:  4, cta: 6 initialized @(7,0)
GPGPU-Sim uArch: core:  5, cta: 6 initialized @(7,0)
GPGPU-Sim uArch: core:  6, cta: 6 initialized @(7,0)
GPGPU-Sim uArch: core:  7, cta: 6 initialized @(7,0)
GPGPU-Sim uArch: core:  8, cta: 6 initialized @(7,0)
GPGPU-Sim uArch: core:  9, cta: 6 initialized @(7,0)
GPGPU-Sim uArch: core: 10, cta: 6 initialized @(7,0)
GPGPU-Sim uArch: core: 11, cta: 6 initialized @(7,0)
GPGPU-Sim uArch: core: 12, cta: 6 initialized @(7,0)
GPGPU-Sim uArch: core: 13, cta: 6 initialized @(7,0)
GPGPU-Sim uArch: core: 14, cta: 6 initialized @(7,0)
GPGPU-Sim uArch: core:  0, cta: 6 initialized @(7,0)
GPGPU-Sim uArch: core:  1, cta: 7 initialized @(8,0)
GPGPU-Sim uArch: core:  2, cta: 7 initialized @(8,0)
GPGPU-Sim uArch: core:  3, cta: 7 initialized @(8,0)
GPGPU-Sim uArch: core:  4, cta: 7 initialized @(8,0)
GPGPU-Sim uArch: core:  5, cta: 7 initialized @(8,0)
GPGPU-Sim uArch: core:  6, cta: 7 initialized @(8,0)
GPGPU-Sim uArch: core:  7, cta: 7 initialized @(8,0)
GPGPU-Sim uArch: core:  8, cta: 7 initialized @(8,0)
GPGPU-Sim uArch: core:  9, cta: 7 initialized @(8,0)
GPGPU-Sim uArch: core: 10, cta: 7 initialized @(8,0)
GPGPU-Sim uArch: core: 11, cta: 7 initialized @(8,0)
GPGPU-Sim uArch: core: 12, cta: 7 initialized @(8,0)
GPGPU-Sim uArch: core: 13, cta: 7 initialized @(8,0)
GPGPU-Sim uArch: core: 14, cta: 7 initialized @(8,0)
GPGPU-Sim uArch: core:  0, cta: 7 initialized @(8,0)
GPGPU-Sim uArch: cycles simulated: 500  inst.: 61440 (ipc=122.9) sim_rate=61440 (inst/sec) elapsed = 0:0:00:01 / Fri Jan 16 05:34:56 2015
GPGPU-Sim PTX: 100000 instructions simulated : ctaid=(14,2,0) tid=(7,7,0)
GPGPU-Sim PTX: 200000 instructions simulated : ctaid=(0,0,0) tid=(7,3,0)
GPGPU-Sim PTX: 300000 instructions simulated : ctaid=(1,3,0) tid=(7,3,0)
GPGPU-Sim PTX: 400000 instructions simulated : ctaid=(14,0,0) tid=(7,3,0)
GPGPU-Sim PTX: 500000 instructions simulated : ctaid=(6,2,0) tid=(6,2,0)
GPGPU-Sim PTX: 600000 instructions simulated : ctaid=(25,0,0) tid=(5,1,0)
GPGPU-Sim PTX: 700000 instructions simulated : ctaid=(5,2,0) tid=(7,7,0)
GPGPU-Sim uArch: cycles simulated: 2000  inst.: 724051 (ipc=362.0) sim_rate=362025 (inst/sec) elapsed = 0:0:00:02 / Fri Jan 16 05:34:57 2015
GPGPU-Sim PTX: 800000 instructions simulated : ctaid=(17,2,0) tid=(4,3,0)
GPGPU-Sim PTX: 900000 instructions simulated : ctaid=(25,2,0) tid=(7,2,0)
GPGPU-Sim PTX: 1000000 instructions simulated : ctaid=(6,3,0) tid=(7,7,0)
GPGPU-Sim uArch: Shader 5 finished CTA #4 (2377,0), 7 CTAs running
GPGPU-Sim uArch: core:  5, cta: 4 initialized @(2378,0)
GPGPU-Sim uArch: Shader 4 finished CTA #0 (2392,0), 7 CTAs running
GPGPU-Sim uArch: core:  4, cta: 0 initialized @(2393,0)
GPGPU-Sim uArch: Shader 5 finished CTA #0 (2406,0), 7 CTAs running
GPGPU-Sim uArch: core:  5, cta: 0 initialized @(2407,0)
GPGPU-Sim uArch: Shader 1 finished CTA #0 (2407,0), 7 CTAs running
GPGPU-Sim uArch: core:  1, cta: 0 initialized @(2408,0)
GPGPU-Sim uArch: Shader 2 finished CTA #0 (2412,0), 7 CTAs running
GPGPU-Sim uArch: Shader 4 finished CTA #2 (2412,0), 7 CTAs running
GPGPU-Sim uArch: core:  2, cta: 0 initialized @(2413,0)
GPGPU-Sim uArch: core:  4, cta: 2 initialized @(2413,0)
GPGPU-Sim uArch: Shader 3 finished CTA #0 (2418,0), 7 CTAs running
GPGPU-Sim uArch: core:  3, cta: 0 initialized @(2419,0)
GPGPU-Sim PTX: 1100000 instructions simulated : ctaid=(8,3,0) tid=(4,7,0)
GPGPU-Sim uArch: Shader 6 finished CTA #4 (2447,0), 7 CTAs running
GPGPU-Sim uArch: core:  6, cta: 4 initialized @(2448,0)
GPGPU-Sim uArch: Shader 5 finished CTA #2 (2498,0), 7 CTAs running
GPGPU-Sim uArch: core:  5, cta: 2 initialized @(2499,0)
GPGPU-Sim uArch: Shader 3 finished CTA #2 (2503,0), 7 CTAs running
GPGPU-Sim uArch: core:  3, cta: 2 initialized @(2504,0)
GPGPU-Sim PTX: 1200000 instructions simulated : ctaid=(26,3,0) tid=(7,0,0)
GPGPU-Sim uArch: Shader 6 finished CTA #0 (2615,0), 7 CTAs running
GPGPU-Sim uArch: core:  6, cta: 0 initialized @(2616,0)
GPGPU-Sim PTX: 1300000 instructions simulated : ctaid=(11,3,0) tid=(6,2,0)
GPGPU-Sim PTX: 1400000 instructions simulated : ctaid=(27,0,0) tid=(7,4,0)
GPGPU-Sim PTX: 1500000 instructions simulated : ctaid=(5,2,0) tid=(4,0,0)
GPGPU-Sim uArch: Shader 9 finished CTA #0 (2984,0), 7 CTAs running
GPGPU-Sim uArch: core:  9, cta: 0 initialized @(2985,0)
GPGPU-Sim uArch: cycles simulated: 3000  inst.: 1464236 (ipc=488.1) sim_rate=488078 (inst/sec) elapsed = 0:0:00:03 / Fri Jan 16 05:34:58 2015
GPGPU-Sim uArch: Shader 7 finished CTA #6 (3017,0), 7 CTAs running
GPGPU-Sim uArch: core:  7, cta: 6 initialized @(3018,0)
GPGPU-Sim PTX: 1600000 instructions simulated : ctaid=(4,2,0) tid=(1,6,0)
GPGPU-Sim PTX: 1700000 instructions simulated : ctaid=(31,0,0) tid=(5,2,0)
GPGPU-Sim PTX: 1800000 instructions simulated : ctaid=(29,1,0) tid=(0,1,0)
GPGPU-Sim uArch: Shader 8 finished CTA #6 (3390,0), 7 CTAs running
GPGPU-Sim uArch: core:  8, cta: 6 initialized @(3391,0)
GPGPU-Sim PTX: 1900000 instructions simulated : ctaid=(30,1,0) tid=(5,6,0)
GPGPU-Sim uArch: cycles simulated: 3500  inst.: 1829245 (ipc=522.6) sim_rate=457311 (inst/sec) elapsed = 0:0:00:04 / Fri Jan 16 05:34:59 2015
GPGPU-Sim PTX: 2000000 instructions simulated : ctaid=(20,2,0) tid=(3,3,0)
GPGPU-Sim uArch: Shader 12 finished CTA #2 (3673,0), 7 CTAs running
GPGPU-Sim uArch: core: 12, cta: 2 initialized @(3674,0)
GPGPU-Sim PTX: 2100000 instructions simulated : ctaid=(18,3,0) tid=(3,7,0)
GPGPU-Sim uArch: Shader 0 finished CTA #1 (3716,0), 7 CTAs running
GPGPU-Sim uArch: core:  0, cta: 1 initialized @(3717,0)
GPGPU-Sim uArch: Shader 1 finished CTA #2 (3754,0), 7 CTAs running
GPGPU-Sim uArch: core:  1, cta: 2 initialized @(3755,0)
GPGPU-Sim uArch: Shader 12 finished CTA #1 (3778,0), 7 CTAs running
GPGPU-Sim uArch: core: 12, cta: 1 initialized @(3779,0)
GPGPU-Sim uArch: Shader 14 finished CTA #1 (3804,0), 7 CTAs running
GPGPU-Sim uArch: core: 14, cta: 1 initialized @(3805,0)
GPGPU-Sim uArch: Shader 13 finished CTA #1 (3816,0), 7 CTAs running
GPGPU-Sim uArch: core: 13, cta: 1 initialized @(3817,0)
GPGPU-Sim uArch: Shader 2 finished CTA #2 (3829,0), 7 CTAs running
GPGPU-Sim uArch: core:  2, cta: 2 initialized @(3830,0)
GPGPU-Sim uArch: Shader 7 finished CTA #1 (3833,0), 7 CTAs running
GPGPU-Sim uArch: core:  7, cta: 1 initialized @(3834,0)
GPGPU-Sim PTX: 2200000 instructions simulated : ctaid=(2,4,0) tid=(5,1,0)
GPGPU-Sim uArch: Shader 9 finished CTA #1 (3860,0), 7 CTAs running
GPGPU-Sim uArch: core:  9, cta: 1 initialized @(3861,0)
GPGPU-Sim uArch: Shader 11 finished CTA #1 (3864,0), 7 CTAs running
GPGPU-Sim uArch: core: 11, cta: 1 initialized @(3865,0)
GPGPU-Sim uArch: Shader 8 finished CTA #1 (3866,0), 7 CTAs running
GPGPU-Sim uArch: core:  8, cta: 1 initialized @(3867,0)
GPGPU-Sim uArch: Shader 3 finished CTA #4 (3883,0), 7 CTAs running
GPGPU-Sim uArch: core:  3, cta: 4 initialized @(3884,0)
GPGPU-Sim uArch: Shader 1 finished CTA #4 (3915,0), 7 CTAs running
GPGPU-Sim uArch: core:  1, cta: 4 initialized @(3916,0)
GPGPU-Sim uArch: Shader 6 finished CTA #1 (3967,0), 7 CTAs running
GPGPU-Sim uArch: core:  6, cta: 1 initialized @(3968,0)
GPGPU-Sim uArch: Shader 5 finished CTA #1 (3969,0), 7 CTAs running
GPGPU-Sim uArch: core:  5, cta: 1 initialized @(3970,0)
GPGPU-Sim uArch: Shader 10 finished CTA #1 (3975,0), 7 CTAs running
GPGPU-Sim uArch: core: 10, cta: 1 initialized @(3976,0)
GPGPU-Sim PTX: 2300000 instructions simulated : ctaid=(12,2,0) tid=(5,5,0)
GPGPU-Sim uArch: Shader 2 finished CTA #4 (3977,0), 7 CTAs running
GPGPU-Sim uArch: core:  2, cta: 4 initialized @(3978,0)
GPGPU-Sim uArch: Shader 0 finished CTA #3 (4009,0), 7 CTAs running
GPGPU-Sim uArch: core:  0, cta: 3 initialized @(4010,0)
GPGPU-Sim uArch: Shader 14 finished CTA #3 (4028,0), 7 CTAs running
GPGPU-Sim uArch: core: 14, cta: 3 initialized @(4029,0)
GPGPU-Sim uArch: Shader 4 finished CTA #4 (4067,0), 7 CTAs running
GPGPU-Sim uArch: core:  4, cta: 4 initialized @(4068,0)
GPGPU-Sim uArch: Shader 13 finished CTA #3 (4094,0), 7 CTAs running
GPGPU-Sim uArch: core: 13, cta: 3 initialized @(4095,0)
GPGPU-Sim PTX: 2400000 instructions simulated : ctaid=(11,0,0) tid=(4,3,0)
GPGPU-Sim uArch: Shader 14 finished CTA #4 (4116,0), 7 CTAs running
GPGPU-Sim uArch: core: 14, cta: 4 initialized @(4117,0)
GPGPU-Sim uArch: Shader 12 finished CTA #3 (4144,0), 7 CTAs running
GPGPU-Sim uArch: core: 12, cta: 3 initialized @(4145,0)
GPGPU-Sim uArch: Shader 0 finished CTA #4 (4170,0), 7 CTAs running
GPGPU-Sim uArch: core:  0, cta: 4 initialized @(4171,0)
GPGPU-Sim uArch: Shader 10 finished CTA #3 (4174,0), 7 CTAs running
GPGPU-Sim uArch: core: 10, cta: 3 initialized @(4175,0)
GPGPU-Sim uArch: Shader 11 finished CTA #3 (4183,0), 7 CTAs running
GPGPU-Sim uArch: core: 11, cta: 3 initialized @(4184,0)
GPGPU-Sim uArch: Shader 4 finished CTA #1 (4211,0), 7 CTAs running
GPGPU-Sim uArch: core:  4, cta: 1 initialized @(4212,0)
GPGPU-Sim uArch: Shader 9 finished CTA #3 (4238,0), 7 CTAs running
GPGPU-Sim uArch: core:  9, cta: 3 initialized @(4239,0)
GPGPU-Sim PTX: 2500000 instructions simulated : ctaid=(12,0,0) tid=(2,4,0)
GPGPU-Sim uArch: Shader 7 finished CTA #3 (4283,0), 7 CTAs running
GPGPU-Sim uArch: core:  7, cta: 3 initialized @(4284,0)
GPGPU-Sim uArch: Shader 8 finished CTA #3 (4330,0), 7 CTAs running
GPGPU-Sim uArch: core:  8, cta: 3 initialized @(4331,0)
GPGPU-Sim uArch: Shader 5 finished CTA #6 (4362,0), 7 CTAs running
GPGPU-Sim uArch: core:  5, cta: 6 initialized @(4363,0)
GPGPU-Sim PTX: 2600000 instructions simulated : ctaid=(31,3,0) tid=(6,3,0)
GPGPU-Sim uArch: Shader 3 finished CTA #6 (4384,0), 7 CTAs running
GPGPU-Sim uArch: core:  3, cta: 6 initialized @(4385,0)
GPGPU-Sim uArch: Shader 4 finished CTA #6 (4444,0), 7 CTAs running
GPGPU-Sim uArch: core:  4, cta: 6 initialized @(4445,0)
GPGPU-Sim uArch: cycles simulated: 4500  inst.: 2531223 (ipc=562.5) sim_rate=506244 (inst/sec) elapsed = 0:0:00:05 / Fri Jan 16 05:35:00 2015
GPGPU-Sim PTX: 2700000 instructions simulated : ctaid=(7,3,0) tid=(5,5,0)
GPGPU-Sim uArch: Shader 0 finished CTA #5 (4554,0), 7 CTAs running
GPGPU-Sim uArch: core:  0, cta: 5 initialized @(4555,0)
GPGPU-Sim uArch: Shader 1 finished CTA #6 (4648,0), 7 CTAs running
GPGPU-Sim uArch: core:  1, cta: 6 initialized @(4649,0)
GPGPU-Sim uArch: Shader 14 finished CTA #5 (4653,0), 7 CTAs running
GPGPU-Sim uArch: core: 14, cta: 5 initialized @(4654,0)
GPGPU-Sim PTX: 2800000 instructions simulated : ctaid=(13,0,0) tid=(0,2,0)
GPGPU-Sim uArch: Shader 12 finished CTA #5 (4697,0), 7 CTAs running
GPGPU-Sim uArch: core: 12, cta: 5 initialized @(4698,0)
GPGPU-Sim uArch: Shader 2 finished CTA #6 (4721,0), 7 CTAs running
GPGPU-Sim uArch: core:  2, cta: 6 initialized @(4722,0)
GPGPU-Sim uArch: Shader 13 finished CTA #5 (4738,0), 7 CTAs running
GPGPU-Sim uArch: core: 13, cta: 5 initialized @(4739,0)
GPGPU-Sim uArch: Shader 6 finished CTA #6 (4750,0), 7 CTAs running
GPGPU-Sim uArch: core:  6, cta: 6 initialized @(4751,0)
GPGPU-Sim PTX: 2900000 instructions simulated : ctaid=(15,2,0) tid=(6,5,0)
GPGPU-Sim uArch: Shader 11 finished CTA #5 (4843,0), 7 CTAs running
GPGPU-Sim uArch: core: 11, cta: 5 initialized @(4844,0)
GPGPU-Sim uArch: Shader 11 finished CTA #4 (4868,0), 7 CTAs running
GPGPU-Sim uArch: core: 11, cta: 4 initialized @(4869,0)
GPGPU-Sim uArch: Shader 3 finished CTA #7 (4888,0), 7 CTAs running
GPGPU-Sim uArch: core:  3, cta: 7 initialized @(4889,0)
GPGPU-Sim uArch: Shader 6 finished CTA #3 (4911,0), 7 CTAs running
GPGPU-Sim uArch: core:  6, cta: 3 initialized @(4912,0)
GPGPU-Sim PTX: 3000000 instructions simulated : ctaid=(16,4,0) tid=(7,0,0)
GPGPU-Sim uArch: Shader 9 finished CTA #5 (5054,0), 7 CTAs running
GPGPU-Sim uArch: core:  9, cta: 5 initialized @(5055,0)
GPGPU-Sim uArch: Shader 10 finished CTA #5 (5059,0), 7 CTAs running
GPGPU-Sim uArch: core: 10, cta: 5 initialized @(5060,0)
GPGPU-Sim uArch: Shader 5 finished CTA #2 (5065,0), 7 CTAs running
GPGPU-Sim uArch: core:  5, cta: 2 initialized @(5066,0)
GPGPU-Sim PTX: 3100000 instructions simulated : ctaid=(17,4,0) tid=(5,5,0)
GPGPU-Sim uArch: Shader 1 finished CTA #7 (5139,0), 7 CTAs running
GPGPU-Sim uArch: core:  1, cta: 7 initialized @(5140,0)
GPGPU-Sim uArch: Shader 8 finished CTA #0 (5208,0), 7 CTAs running
GPGPU-Sim uArch: core:  8, cta: 0 initialized @(5209,0)
GPGPU-Sim PTX: 3200000 instructions simulated : ctaid=(26,4,0) tid=(5,5,0)
GPGPU-Sim uArch: Shader 2 finished CTA #7 (5298,0), 7 CTAs running
GPGPU-Sim uArch: core:  2, cta: 7 initialized @(5299,0)
GPGPU-Sim uArch: Shader 4 finished CTA #7 (5335,0), 7 CTAs running
GPGPU-Sim uArch: core:  4, cta: 7 initialized @(5336,0)
GPGPU-Sim uArch: Shader 3 finished CTA #2 (5336,0), 7 CTAs running
GPGPU-Sim uArch: core:  3, cta: 2 initialized @(5337,0)
GPGPU-Sim PTX: 3300000 instructions simulated : ctaid=(18,3,0) tid=(6,0,0)
GPGPU-Sim uArch: Shader 14 finished CTA #6 (5440,0), 7 CTAs running
GPGPU-Sim uArch: core: 14, cta: 6 initialized @(5441,0)
GPGPU-Sim uArch: cycles simulated: 5500  inst.: 3197146 (ipc=581.3) sim_rate=532857 (inst/sec) elapsed = 0:0:00:06 / Fri Jan 16 05:35:01 2015
GPGPU-Sim PTX: 3400000 instructions simulated : ctaid=(14,4,0) tid=(4,3,0)
GPGPU-Sim PTX: 3500000 instructions simulated : ctaid=(14,1,0) tid=(5,7,0)
GPGPU-Sim uArch: Shader 12 finished CTA #6 (5671,0), 7 CTAs running
GPGPU-Sim uArch: core: 12, cta: 6 initialized @(5672,0)
GPGPU-Sim uArch: Shader 13 finished CTA #6 (5737,0), 7 CTAs running
GPGPU-Sim uArch: core: 13, cta: 6 initialized @(5738,0)
GPGPU-Sim PTX: 3600000 instructions simulated : ctaid=(17,4,0) tid=(1,7,0)
GPGPU-Sim uArch: Shader 5 finished CTA #4 (5864,0), 7 CTAs running
GPGPU-Sim uArch: core:  5, cta: 4 initialized @(5865,0)
GPGPU-Sim uArch: Shader 14 finished CTA #7 (5889,0), 7 CTAs running
GPGPU-Sim uArch: core: 14, cta: 7 initialized @(5890,0)
GPGPU-Sim uArch: Shader 0 finished CTA #7 (5934,0), 7 CTAs running
GPGPU-Sim uArch: core:  0, cta: 7 initialized @(5935,0)
GPGPU-Sim PTX: 3700000 instructions simulated : ctaid=(20,5,0) tid=(3,2,0)
GPGPU-Sim uArch: Shader 12 finished CTA #7 (6008,0), 7 CTAs running
GPGPU-Sim uArch: core: 12, cta: 7 initialized @(6009,0)
GPGPU-Sim uArch: Shader 4 finished CTA #0 (6060,0), 7 CTAs running
GPGPU-Sim uArch: core:  4, cta: 0 initialized @(6061,0)
GPGPU-Sim uArch: Shader 3 finished CTA #0 (6065,0), 7 CTAs running
GPGPU-Sim uArch: core:  3, cta: 0 initialized @(6066,0)
GPGPU-Sim PTX: 3800000 instructions simulated : ctaid=(17,3,0) tid=(4,0,0)
GPGPU-Sim uArch: Shader 5 finished CTA #0 (6140,0), 7 CTAs running
GPGPU-Sim uArch: core:  5, cta: 0 initialized @(6141,0)
GPGPU-Sim uArch: Shader 6 finished CTA #4 (6176,0), 7 CTAs running
GPGPU-Sim uArch: core:  6, cta: 4 initialized @(6177,0)
GPGPU-Sim uArch: Shader 13 finished CTA #7 (6230,0), 7 CTAs running
GPGPU-Sim uArch: core: 13, cta: 7 initialized @(6231,0)
GPGPU-Sim PTX: 3900000 instructions simulated : ctaid=(15,1,0) tid=(7,5,0)
GPGPU-Sim uArch: Shader 1 finished CTA #0 (6254,0), 7 CTAs running
GPGPU-Sim uArch: core:  1, cta: 0 initialized @(6255,0)
GPGPU-Sim uArch: Shader 4 finished CTA #2 (6383,0), 7 CTAs running
GPGPU-Sim uArch: core:  4, cta: 2 initialized @(6384,0)
GPGPU-Sim uArch: Shader 2 finished CTA #0 (6398,0), 7 CTAs running
GPGPU-Sim PTX: 4000000 instructions simulated : ctaid=(19,4,0) tid=(2,2,0)
GPGPU-Sim uArch: core:  2, cta: 0 initialized @(6399,0)
GPGPU-Sim uArch: Shader 1 finished CTA #3 (6465,0), 7 CTAs running
GPGPU-Sim uArch: core:  1, cta: 3 initialized @(6466,0)
GPGPU-Sim uArch: Shader 11 finished CTA #7 (6486,0), 7 CTAs running
GPGPU-Sim uArch: core: 11, cta: 7 initialized @(6487,0)
GPGPU-Sim uArch: cycles simulated: 6500  inst.: 3831669 (ipc=589.5) sim_rate=547381 (inst/sec) elapsed = 0:0:00:07 / Fri Jan 16 05:35:02 2015
GPGPU-Sim PTX: 4100000 instructions simulated : ctaid=(25,5,0) tid=(1,4,0)
GPGPU-Sim PTX: 4200000 instructions simulated : ctaid=(12,0,0) tid=(6,7,0)
GPGPU-Sim uArch: Shader 6 finished CTA #2 (6851,0), 7 CTAs running
GPGPU-Sim uArch: core:  6, cta: 2 initialized @(6852,0)
GPGPU-Sim PTX: 4300000 instructions simulated : ctaid=(17,4,0) tid=(2,4,0)
GPGPU-Sim uArch: Shader 0 finished CTA #1 (6940,0), 7 CTAs running
GPGPU-Sim uArch: core:  0, cta: 1 initialized @(6941,0)
GPGPU-Sim uArch: Shader 14 finished CTA #1 (6988,0), 7 CTAs running
GPGPU-Sim uArch: core: 14, cta: 1 initialized @(6989,0)
GPGPU-Sim PTX: 4400000 instructions simulated : ctaid=(13,5,0) tid=(6,5,0)
GPGPU-Sim uArch: Shader 1 finished CTA #2 (7166,0), 7 CTAs running
GPGPU-Sim uArch: core:  1, cta: 2 initialized @(7167,0)
GPGPU-Sim PTX: 4500000 instructions simulated : ctaid=(17,4,0) tid=(2,2,0)
GPGPU-Sim uArch: Shader 12 finished CTA #2 (7238,0), 7 CTAs running
GPGPU-Sim uArch: core: 12, cta: 2 initialized @(7239,0)
GPGPU-Sim uArch: Shader 12 finished CTA #1 (7294,0), 7 CTAs running
GPGPU-Sim uArch: core: 12, cta: 1 initialized @(7295,0)
GPGPU-Sim PTX: 4600000 instructions simulated : ctaid=(10,5,0) tid=(4,2,0)
GPGPU-Sim uArch: Shader 13 finished CTA #1 (7428,0), 7 CTAs running
GPGPU-Sim uArch: core: 13, cta: 1 initialized @(7429,0)
GPGPU-Sim uArch: Shader 4 finished CTA #4 (7466,0), 7 CTAs running
GPGPU-Sim uArch: core:  4, cta: 4 initialized @(7467,0)
GPGPU-Sim uArch: Shader 2 finished CTA #2 (7496,0), 7 CTAs running
GPGPU-Sim uArch: core:  2, cta: 2 initialized @(7497,0)
GPGPU-Sim uArch: cycles simulated: 7500  inst.: 4411567 (ipc=588.2) sim_rate=551445 (inst/sec) elapsed = 0:0:00:08 / Fri Jan 16 05:35:03 2015
GPGPU-Sim PTX: 4700000 instructions simulated : ctaid=(16,3,0) tid=(6,5,0)
GPGPU-Sim uArch: Shader 14 finished CTA #3 (7531,0), 7 CTAs running
GPGPU-Sim uArch: core: 14, cta: 3 initialized @(7532,0)
GPGPU-Sim uArch: Shader 0 finished CTA #3 (7582,0), 7 CTAs running
GPGPU-Sim uArch: core:  0, cta: 3 initialized @(7583,0)
GPGPU-Sim PTX: 4800000 instructions simulated : ctaid=(29,5,0) tid=(6,2,0)
GPGPU-Sim uArch: Shader 8 finished CTA #6 (7824,0), 7 CTAs running
GPGPU-Sim uArch: core:  8, cta: 6 initialized @(7825,0)
GPGPU-Sim uArch: Shader 14 finished CTA #4 (7840,0), 7 CTAs running
GPGPU-Sim uArch: core: 14, cta: 4 initialized @(7841,0)
GPGPU-Sim uArch: Shader 12 finished CTA #3 (7842,0), 7 CTAs running
GPGPU-Sim uArch: core: 12, cta: 3 initialized @(7843,0)
GPGPU-Sim PTX: 4900000 instructions simulated : ctaid=(9,6,0) tid=(7,2,0)
GPGPU-Sim uArch: Shader 0 finished CTA #4 (7887,0), 7 CTAs running
GPGPU-Sim uArch: core:  0, cta: 4 initialized @(7888,0)
GPGPU-Sim uArch: Shader 5 finished CTA #1 (7919,0), 7 CTAs running
GPGPU-Sim uArch: core:  5, cta: 1 initialized @(7920,0)
GPGPU-Sim uArch: Shader 10 finished CTA #1 (7973,0), 7 CTAs running
GPGPU-Sim uArch: core: 10, cta: 1 initialized @(7974,0)
GPGPU-Sim uArch: Shader 2 finished CTA #4 (7985,0), 7 CTAs running
GPGPU-Sim uArch: core:  2, cta: 4 initialized @(7986,0)
GPGPU-Sim uArch: Shader 13 finished CTA #3 (8034,0), 7 CTAs running
GPGPU-Sim uArch: core: 13, cta: 3 initialized @(8035,0)
GPGPU-Sim PTX: 5000000 instructions simulated : ctaid=(22,5,0) tid=(5,7,0)
GPGPU-Sim uArch: Shader 6 finished CTA #1 (8185,0), 7 CTAs running
GPGPU-Sim uArch: core:  6, cta: 1 initialized @(8186,0)
GPGPU-Sim PTX: 5100000 instructions simulated : ctaid=(12,6,0) tid=(2,3,0)
GPGPU-Sim uArch: Shader 10 finished CTA #3 (8373,0), 7 CTAs running
GPGPU-Sim uArch: core: 10, cta: 3 initialized @(8374,0)
GPGPU-Sim PTX: 5200000 instructions simulated : ctaid=(16,1,0) tid=(2,5,0)
GPGPU-Sim uArch: Shader 14 finished CTA #5 (8472,0), 7 CTAs running
GPGPU-Sim uArch: core: 14, cta: 5 initialized @(8473,0)
GPGPU-Sim uArch: Shader 12 finished CTA #5 (8490,0), 7 CTAs running
GPGPU-Sim uArch: core: 12, cta: 5 initialized @(8491,0)
GPGPU-Sim uArch: cycles simulated: 8500  inst.: 4938430 (ipc=581.0) sim_rate=548714 (inst/sec) elapsed = 0:0:00:09 / Fri Jan 16 05:35:04 2015
GPGPU-Sim uArch: Shader 4 finished CTA #6 (8522,0), 7 CTAs running
GPGPU-Sim uArch: core:  4, cta: 6 initialized @(8523,0)
GPGPU-Sim uArch: Shader 1 finished CTA #6 (8541,0), 7 CTAs running
GPGPU-Sim uArch: core:  1, cta: 6 initialized @(8542,0)
GPGPU-Sim uArch: Shader 11 finished CTA #3 (8555,0), 7 CTAs running
GPGPU-Sim uArch: core: 11, cta: 3 initialized @(8556,0)
GPGPU-Sim uArch: Shader 0 finished CTA #5 (8572,0), 7 CTAs running
GPGPU-Sim uArch: core:  0, cta: 5 initialized @(8573,0)
GPGPU-Sim uArch: Shader 3 finished CTA #6 (8576,0), 7 CTAs running
GPGPU-Sim uArch: core:  3, cta: 6 initialized @(8577,0)
GPGPU-Sim PTX: 5300000 instructions simulated : ctaid=(3,4,0) tid=(4,1,0)
GPGPU-Sim uArch: Shader 7 finished CTA #4 (8671,0), 7 CTAs running
GPGPU-Sim uArch: core:  7, cta: 4 initialized @(8672,0)
GPGPU-Sim uArch: Shader 2 finished CTA #6 (8705,0), 7 CTAs running
GPGPU-Sim uArch: core:  2, cta: 6 initialized @(8706,0)
GPGPU-Sim PTX: 5400000 instructions simulated : ctaid=(13,6,0) tid=(0,1,0)
GPGPU-Sim uArch: Shader 13 finished CTA #5 (8982,0), 7 CTAs running
GPGPU-Sim uArch: core: 13, cta: 5 initialized @(8983,0)
GPGPU-Sim PTX: 5500000 instructions simulated : ctaid=(28,6,0) tid=(6,6,0)
GPGPU-Sim uArch: Shader 4 finished CTA #7 (9110,0), 7 CTAs running
GPGPU-Sim uArch: core:  4, cta: 7 initialized @(9111,0)
GPGPU-Sim uArch: Shader 6 finished CTA #6 (9116,0), 7 CTAs running
GPGPU-Sim uArch: core:  6, cta: 6 initialized @(9117,0)
GPGPU-Sim PTX: 5600000 instructions simulated : ctaid=(8,7,0) tid=(7,5,0)
GPGPU-Sim uArch: Shader 1 finished CTA #7 (9208,0), 7 CTAs running
GPGPU-Sim uArch: core:  1, cta: 7 initialized @(9209,0)
GPGPU-Sim uArch: Shader 14 finished CTA #6 (9230,0), 7 CTAs running
GPGPU-Sim uArch: core: 14, cta: 6 initialized @(9231,0)
GPGPU-Sim uArch: Shader 12 finished CTA #6 (9284,0), 7 CTAs running
GPGPU-Sim uArch: core: 12, cta: 6 initialized @(9285,0)
GPGPU-Sim uArch: Shader 2 finished CTA #7 (9354,0), 7 CTAs running
GPGPU-Sim uArch: core:  2, cta: 7 initialized @(9355,0)
GPGPU-Sim PTX: 5700000 instructions simulated : ctaid=(16,4,0) tid=(2,2,0)
GPGPU-Sim uArch: cycles simulated: 9500  inst.: 5428515 (ipc=571.4) sim_rate=542851 (inst/sec) elapsed = 0:0:00:10 / Fri Jan 16 05:35:05 2015
GPGPU-Sim uArch: Shader 13 finished CTA #6 (9523,0), 7 CTAs running
GPGPU-Sim uArch: core: 13, cta: 6 initialized @(9524,0)
GPGPU-Sim uArch: Shader 5 finished CTA #2 (9560,0), 7 CTAs running
GPGPU-Sim uArch: core:  5, cta: 2 initialized @(9561,0)
GPGPU-Sim PTX: 5800000 instructions simulated : ctaid=(23,6,0) tid=(3,1,0)
GPGPU-Sim uArch: Shader 0 finished CTA #7 (9762,0), 7 CTAs running
GPGPU-Sim uArch: core:  0, cta: 7 initialized @(9763,0)
GPGPU-Sim PTX: 5900000 instructions simulated : ctaid=(17,1,0) tid=(2,1,0)
GPGPU-Sim uArch: Shader 14 finished CTA #7 (9825,0), 7 CTAs running
GPGPU-Sim uArch: core: 14, cta: 7 initialized @(9826,0)
GPGPU-Sim uArch: Shader 3 finished CTA #2 (9834,0), 7 CTAs running
GPGPU-Sim uArch: core:  3, cta: 2 initialized @(9835,0)
GPGPU-Sim PTX: 6000000 instructions simulated : ctaid=(5,6,0) tid=(2,4,0)
GPGPU-Sim uArch: Shader 5 finished CTA #4 (10076,0), 7 CTAs running
GPGPU-Sim uArch: core:  5, cta: 4 initialized @(10077,0)
GPGPU-Sim PTX: 6100000 instructions simulated : ctaid=(12,7,0) tid=(4,0,0)
GPGPU-Sim uArch: Shader 1 finished CTA #0 (10234,0), 7 CTAs running
GPGPU-Sim uArch: core:  1, cta: 0 initialized @(10235,0)
GPGPU-Sim uArch: Shader 2 finished CTA #0 (10312,0), 7 CTAs running
GPGPU-Sim uArch: core:  2, cta: 0 initialized @(10313,0)
GPGPU-Sim uArch: Shader 0 finished CTA #1 (10331,0), 7 CTAs running
GPGPU-Sim uArch: core:  0, cta: 1 initialized @(10332,0)
GPGPU-Sim uArch: Shader 1 finished CTA #3 (10375,0), 7 CTAs running
GPGPU-Sim uArch: core:  1, cta: 3 initialized @(10376,0)
GPGPU-Sim PTX: 6200000 instructions simulated : ctaid=(21,6,0) tid=(4,0,0)
GPGPU-Sim uArch: Shader 10 finished CTA #5 (10454,0), 7 CTAs running
GPGPU-Sim uArch: core: 10, cta: 5 initialized @(10455,0)
GPGPU-Sim uArch: cycles simulated: 10500  inst.: 5872765 (ipc=559.3) sim_rate=533887 (inst/sec) elapsed = 0:0:00:11 / Fri Jan 16 05:35:06 2015
GPGPU-Sim PTX: 6300000 instructions simulated : ctaid=(18,6,0) tid=(5,1,0)
GPGPU-Sim uArch: Shader 0 finished CTA #6 (10767,0), 7 CTAs running
GPGPU-Sim uArch: core:  0, cta: 6 initialized @(10768,0)
GPGPU-Sim uArch: Shader 4 finished CTA #2 (10777,0), 7 CTAs running
GPGPU-Sim uArch: core:  4, cta: 2 initialized @(10778,0)
GPGPU-Sim PTX: 6400000 instructions simulated : ctaid=(15,2,0) tid=(5,1,0)
GPGPU-Sim uArch: Shader 13 finished CTA #7 (10933,0), 7 CTAs running
GPGPU-Sim uArch: core: 13, cta: 7 initialized @(10934,0)
GPGPU-Sim uArch: Shader 8 finished CTA #0 (10965,0), 7 CTAs running
GPGPU-Sim uArch: core:  8, cta: 0 initialized @(10966,0)
GPGPU-Sim uArch: Shader 14 finished CTA #1 (11045,0), 7 CTAs running
GPGPU-Sim uArch: core: 14, cta: 1 initialized @(11046,0)
GPGPU-Sim uArch: Shader 8 finished CTA #1 (11087,0), 7 CTAs running
GPGPU-Sim uArch: core:  8, cta: 1 initialized @(11088,0)
GPGPU-Sim PTX: 6500000 instructions simulated : ctaid=(0,8,0) tid=(7,0,0)
GPGPU-Sim uArch: Shader 4 finished CTA #1 (11153,0), 7 CTAs running
GPGPU-Sim uArch: core:  4, cta: 1 initialized @(11154,0)
GPGPU-Sim uArch: Shader 0 finished CTA #3 (11336,0), 7 CTAs running
GPGPU-Sim uArch: core:  0, cta: 3 initialized @(11337,0)
GPGPU-Sim PTX: 6600000 instructions simulated : ctaid=(3,7,0) tid=(7,4,0)
GPGPU-Sim uArch: Shader 3 finished CTA #7 (11374,0), 7 CTAs running
GPGPU-Sim uArch: core:  3, cta: 7 initialized @(11375,0)
GPGPU-Sim uArch: Shader 3 finished CTA #0 (11442,0), 7 CTAs running
GPGPU-Sim uArch: core:  3, cta: 0 initialized @(11443,0)
GPGPU-Sim uArch: Shader 3 finished CTA #5 (11462,0), 7 CTAs running
GPGPU-Sim uArch: core:  3, cta: 5 initialized @(11463,0)
GPGPU-Sim uArch: Shader 0 finished CTA #4 (11497,0), 7 CTAs running
GPGPU-Sim uArch: core:  0, cta: 4 initialized @(11498,0)
GPGPU-Sim uArch: cycles simulated: 11500  inst.: 6286299 (ipc=546.6) sim_rate=523858 (inst/sec) elapsed = 0:0:00:12 / Fri Jan 16 05:35:07 2015
GPGPU-Sim PTX: 6700000 instructions simulated : ctaid=(15,6,0) tid=(4,6,0)
GPGPU-Sim uArch: Shader 13 finished CTA #3 (11598,0), 7 CTAs running
GPGPU-Sim uArch: core: 13, cta: 3 initialized @(11599,0)
GPGPU-Sim uArch: Shader 2 finished CTA #4 (11768,0), 7 CTAs running
GPGPU-Sim uArch: core:  2, cta: 4 initialized @(11769,0)
GPGPU-Sim uArch: Shader 10 finished CTA #1 (11781,0), 7 CTAs running
GPGPU-Sim uArch: core: 10, cta: 1 initialized @(11782,0)
GPGPU-Sim PTX: 6800000 instructions simulated : ctaid=(18,6,0) tid=(0,4,0)
GPGPU-Sim uArch: Shader 13 finished CTA #2 (11934,0), 7 CTAs running
GPGPU-Sim uArch: core: 13, cta: 2 initialized @(11935,0)
GPGPU-Sim uArch: Shader 14 finished CTA #4 (12018,0), 7 CTAs running
GPGPU-Sim uArch: core: 14, cta: 4 initialized @(12019,0)
GPGPU-Sim PTX: 6900000 instructions simulated : ctaid=(18,7,0) tid=(5,0,0)
GPGPU-Sim uArch: Shader 6 finished CTA #2 (12112,0), 7 CTAs running
GPGPU-Sim uArch: core:  6, cta: 2 initialized @(12113,0)
GPGPU-Sim PTX: 7000000 instructions simulated : ctaid=(3,8,0) tid=(2,1,0)
GPGPU-Sim uArch: Shader 6 finished CTA #3 (12355,0), 7 CTAs running
GPGPU-Sim uArch: core:  6, cta: 3 initialized @(12356,0)
GPGPU-Sim uArch: Shader 12 finished CTA #3 (12389,0), 7 CTAs running
GPGPU-Sim uArch: core: 12, cta: 3 initialized @(12390,0)
GPGPU-Sim uArch: Shader 11 finished CTA #7 (12438,0), 7 CTAs running
GPGPU-Sim uArch: core: 11, cta: 7 initialized @(12439,0)
GPGPU-Sim uArch: cycles simulated: 12500  inst.: 6685439 (ipc=534.8) sim_rate=514264 (inst/sec) elapsed = 0:0:00:13 / Fri Jan 16 05:35:08 2015
GPGPU-Sim PTX: 7100000 instructions simulated : ctaid=(25,7,0) tid=(1,3,0)
GPGPU-Sim uArch: Shader 7 finished CTA #5 (12552,0), 7 CTAs running
GPGPU-Sim uArch: core:  7, cta: 5 initialized @(12553,0)
GPGPU-Sim uArch: Shader 8 finished CTA #6 (12675,0), 7 CTAs running
GPGPU-Sim uArch: core:  8, cta: 6 initialized @(12676,0)
GPGPU-Sim PTX: 7200000 instructions simulated : ctaid=(3,7,0) tid=(4,0,0)
GPGPU-Sim uArch: Shader 13 finished CTA #5 (12780,0), 7 CTAs running
GPGPU-Sim uArch: core: 13, cta: 5 initialized @(12781,0)
GPGPU-Sim uArch: Shader 7 finished CTA #4 (12891,0), 7 CTAs running
GPGPU-Sim uArch: core:  7, cta: 4 initialized @(12892,0)
GPGPU-Sim uArch: Shader 5 finished CTA #1 (12995,0), 7 CTAs running
GPGPU-Sim uArch: core:  5, cta: 1 initialized @(12996,0)
GPGPU-Sim uArch: Shader 2 finished CTA #6 (13001,0), 7 CTAs running
GPGPU-Sim uArch: core:  2, cta: 6 initialized @(13002,0)
GPGPU-Sim PTX: 7300000 instructions simulated : ctaid=(25,7,0) tid=(2,3,0)
GPGPU-Sim uArch: Shader 1 finished CTA #7 (13159,0), 7 CTAs running
GPGPU-Sim uArch: core:  1, cta: 7 initialized @(13160,0)
GPGPU-Sim PTX: 7400000 instructions simulated : ctaid=(16,8,0) tid=(2,7,0)
GPGPU-Sim uArch: Shader 3 finished CTA #6 (13266,0), 7 CTAs running
GPGPU-Sim uArch: core:  3, cta: 6 initialized @(13267,0)
GPGPU-Sim uArch: cycles simulated: 13500  inst.: 7059551 (ipc=522.9) sim_rate=504253 (inst/sec) elapsed = 0:0:00:14 / Fri Jan 16 05:35:09 2015
GPGPU-Sim uArch: Shader 6 finished CTA #1 (13508,0), 7 CTAs running
GPGPU-Sim uArch: core:  6, cta: 1 initialized @(13509,0)
GPGPU-Sim PTX: 7500000 instructions simulated : ctaid=(13,7,0) tid=(3,4,0)
GPGPU-Sim PTX: 7600000 instructions simulated : ctaid=(14,6,0) tid=(7,5,0)
GPGPU-Sim uArch: Shader 11 finished CTA #4 (13872,0), 7 CTAs running
GPGPU-Sim uArch: core: 11, cta: 4 initialized @(13873,0)
GPGPU-Sim PTX: 7700000 instructions simulated : ctaid=(16,8,0) tid=(4,4,0)
GPGPU-Sim uArch: Shader 4 finished CTA #7 (14198,0), 7 CTAs running
GPGPU-Sim uArch: core:  4, cta: 7 initialized @(14199,0)
GPGPU-Sim uArch: Shader 12 finished CTA #1 (14261,0), 7 CTAs running
GPGPU-Sim uArch: core: 12, cta: 1 initialized @(14262,0)
GPGPU-Sim PTX: 7800000 instructions simulated : ctaid=(29,7,0) tid=(3,4,0)
GPGPU-Sim uArch: Shader 1 finished CTA #0 (14347,0), 7 CTAs running
GPGPU-Sim uArch: core:  1, cta: 0 initialized @(14348,0)
GPGPU-Sim uArch: Shader 0 finished CTA #1 (14418,0), 7 CTAs running
GPGPU-Sim uArch: core:  0, cta: 1 initialized @(14419,0)
GPGPU-Sim uArch: cycles simulated: 14500  inst.: 7405422 (ipc=510.7) sim_rate=493694 (inst/sec) elapsed = 0:0:00:15 / Fri Jan 16 05:35:10 2015
GPGPU-Sim uArch: Shader 3 finished CTA #1 (14502,0), 7 CTAs running
GPGPU-Sim uArch: core:  3, cta: 1 initialized @(14503,0)
GPGPU-Sim PTX: 7900000 instructions simulated : ctaid=(7,8,0) tid=(1,1,0)
GPGPU-Sim uArch: Shader 6 finished CTA #6 (14655,0), 7 CTAs running
GPGPU-Sim uArch: core:  6, cta: 6 initialized @(14656,0)
GPGPU-Sim uArch: Shader 13 finished CTA #7 (14660,0), 7 CTAs running
GPGPU-Sim uArch: core: 13, cta: 7 initialized @(14661,0)
GPGPU-Sim uArch: Shader 12 finished CTA #2 (14734,0), 7 CTAs running
GPGPU-Sim uArch: core: 12, cta: 2 initialized @(14735,0)
GPGPU-Sim uArch: Shader 1 finished CTA #3 (14821,0), 7 CTAs running
GPGPU-Sim uArch: core:  1, cta: 3 initialized @(14822,0)
GPGPU-Sim uArch: Shader 8 finished CTA #0 (14890,0), 7 CTAs running
GPGPU-Sim uArch: core:  8, cta: 0 initialized @(14891,0)
GPGPU-Sim PTX: 8000000 instructions simulated : ctaid=(25,8,0) tid=(3,6,0)
GPGPU-Sim uArch: Shader 8 finished CTA #2 (14975,0), 7 CTAs running
GPGPU-Sim uArch: core:  8, cta: 2 initialized @(14976,0)
GPGPU-Sim uArch: Shader 2 finished CTA #0 (14988,0), 7 CTAs running
GPGPU-Sim uArch: core:  2, cta: 0 initialized @(14989,0)
GPGPU-Sim uArch: Shader 0 finished CTA #6 (15095,0), 7 CTAs running
GPGPU-Sim uArch: core:  0, cta: 6 initialized @(15096,0)
GPGPU-Sim uArch: Shader 10 finished CTA #5 (15103,0), 7 CTAs running
GPGPU-Sim uArch: core: 10, cta: 5 initialized @(15104,0)
GPGPU-Sim PTX: 8100000 instructions simulated : ctaid=(4,5,0) tid=(1,4,0)
GPGPU-Sim uArch: Shader 7 finished CTA #2 (15235,0), 7 CTAs running
GPGPU-Sim uArch: core:  7, cta: 2 initialized @(15236,0)
GPGPU-Sim PTX: 8200000 instructions simulated : ctaid=(6,8,0) tid=(2,1,0)
GPGPU-Sim uArch: Shader 13 finished CTA #6 (15585,0), 7 CTAs running
GPGPU-Sim uArch: core: 13, cta: 6 initialized @(15586,0)
GPGPU-Sim PTX: 8300000 instructions simulated : ctaid=(2,8,0) tid=(1,4,0)
GPGPU-Sim uArch: Shader 4 finished CTA #2 (15894,0), 7 CTAs running
GPGPU-Sim uArch: Shader 13 finished CTA #3 (15894,0), 7 CTAs running
GPGPU-Sim uArch: core:  4, cta: 2 initialized @(15895,0)
GPGPU-Sim uArch: core: 13, cta: 3 initialized @(15895,0)
GPGPU-Sim uArch: cycles simulated: 16000  inst.: 7900127 (ipc=493.8) sim_rate=493757 (inst/sec) elapsed = 0:0:00:16 / Fri Jan 16 05:35:11 2015
GPGPU-Sim PTX: 8400000 instructions simulated : ctaid=(9,8,0) tid=(2,3,0)
GPGPU-Sim uArch: Shader 10 finished CTA #0 (16196,0), 7 CTAs running
GPGPU-Sim uArch: core: 10, cta: 0 initialized @(16197,0)
GPGPU-Sim PTX: 8500000 instructions simulated : ctaid=(15,2,0) tid=(0,4,0)
GPGPU-Sim uArch: Shader 10 finished CTA #4 (16423,0), 7 CTAs running
GPGPU-Sim uArch: core: 10, cta: 4 initialized @(16424,0)
GPGPU-Sim uArch: Shader 2 finished CTA #4 (16564,0), 7 CTAs running
GPGPU-Sim uArch: core:  2, cta: 4 initialized @(16565,0)
GPGPU-Sim uArch: Shader 13 finished CTA #2 (16575,0), 7 CTAs running
GPGPU-Sim uArch: core: 13, cta: 2 initialized @(16576,0)
GPGPU-Sim PTX: 8600000 instructions simulated : ctaid=(20,8,0) tid=(6,4,0)
GPGPU-Sim PTX: 8700000 instructions simulated : ctaid=(15,9,0) tid=(1,4,0)
GPGPU-Sim uArch: cycles simulated: 17000  inst.: 8218362 (ipc=483.4) sim_rate=483433 (inst/sec) elapsed = 0:0:00:17 / Fri Jan 16 05:35:12 2015
GPGPU-Sim uArch: Shader 10 finished CTA #1 (17054,0), 7 CTAs running
GPGPU-Sim uArch: core: 10, cta: 1 initialized @(17055,0)
GPGPU-Sim uArch: Shader 13 finished CTA #4 (17165,0), 7 CTAs running
GPGPU-Sim uArch: core: 13, cta: 4 initialized @(17166,0)
GPGPU-Sim uArch: Shader 6 finished CTA #2 (17200,0), 7 CTAs running
GPGPU-Sim uArch: core:  6, cta: 2 initialized @(17201,0)
GPGPU-Sim PTX: 8800000 instructions simulated : ctaid=(14,7,0) tid=(7,1,0)
GPGPU-Sim uArch: Shader 14 finished CTA #1 (17270,0), 7 CTAs running
GPGPU-Sim uArch: core: 14, cta: 1 initialized @(17271,0)
GPGPU-Sim uArch: Shader 3 finished CTA #4 (17320,0), 7 CTAs running
GPGPU-Sim uArch: core:  3, cta: 4 initialized @(17321,0)
GPGPU-Sim PTX: 8900000 instructions simulated : ctaid=(2,8,0) tid=(1,0,0)
GPGPU-Sim uArch: Shader 5 finished CTA #4 (17755,0), 7 CTAs running
GPGPU-Sim uArch: core:  5, cta: 4 initialized @(17756,0)
GPGPU-Sim PTX: 9000000 instructions simulated : ctaid=(18,9,0) tid=(3,0,0)
GPGPU-Sim uArch: cycles simulated: 18000  inst.: 8532677 (ipc=474.0) sim_rate=474037 (inst/sec) elapsed = 0:0:00:18 / Fri Jan 16 05:35:13 2015
GPGPU-Sim PTX: 9100000 instructions simulated : ctaid=(2,7,0) tid=(1,5,0)
GPGPU-Sim uArch: Shader 3 finished CTA #6 (18174,0), 7 CTAs running
GPGPU-Sim uArch: core:  3, cta: 6 initialized @(18175,0)
GPGPU-Sim uArch: Shader 8 finished CTA #7 (18175,0), 7 CTAs running
GPGPU-Sim uArch: core:  8, cta: 7 initialized @(18176,0)
GPGPU-Sim uArch: Shader 8 finished CTA #5 (18188,0), 7 CTAs running
GPGPU-Sim uArch: core:  8, cta: 5 initialized @(18189,0)
GPGPU-Sim uArch: Shader 1 finished CTA #1 (18207,0), 7 CTAs running
GPGPU-Sim uArch: core:  1, cta: 1 initialized @(18208,0)
GPGPU-Sim uArch: Shader 1 finished CTA #7 (18348,0), 7 CTAs running
GPGPU-Sim uArch: core:  1, cta: 7 initialized @(18349,0)
GPGPU-Sim PTX: 9200000 instructions simulated : ctaid=(2,7,0) tid=(1,5,0)
GPGPU-Sim uArch: Shader 3 finished CTA #3 (18428,0), 7 CTAs running
GPGPU-Sim uArch: core:  3, cta: 3 initialized @(18429,0)
GPGPU-Sim uArch: Shader 7 finished CTA #1 (18650,0), 7 CTAs running
GPGPU-Sim uArch: core:  7, cta: 1 initialized @(18651,0)
GPGPU-Sim PTX: 9300000 instructions simulated : ctaid=(30,8,0) tid=(2,4,0)
GPGPU-Sim uArch: Shader 11 finished CTA #5 (18914,0), 7 CTAs running
GPGPU-Sim uArch: core: 11, cta: 5 initialized @(18915,0)
GPGPU-Sim uArch: Shader 10 finished CTA #2 (18930,0), 7 CTAs running
GPGPU-Sim uArch: core: 10, cta: 2 initialized @(18931,0)
GPGPU-Sim uArch: Shader 14 finished CTA #4 (18933,0), 7 CTAs running
GPGPU-Sim uArch: core: 14, cta: 4 initialized @(18934,0)
GPGPU-Sim PTX: 9400000 instructions simulated : ctaid=(28,9,0) tid=(0,6,0)
GPGPU-Sim uArch: Shader 6 finished CTA #1 (19043,0), 7 CTAs running
GPGPU-Sim uArch: core:  6, cta: 1 initialized @(19044,0)
GPGPU-Sim uArch: Shader 1 finished CTA #0 (19119,0), 7 CTAs running
GPGPU-Sim uArch: core:  1, cta: 0 initialized @(19120,0)
GPGPU-Sim uArch: Shader 5 finished CTA #7 (19153,0), 7 CTAs running
GPGPU-Sim uArch: core:  5, cta: 7 initialized @(19154,0)
GPGPU-Sim uArch: Shader 10 finished CTA #3 (19195,0), 7 CTAs running
GPGPU-Sim uArch: core: 10, cta: 3 initialized @(19196,0)
GPGPU-Sim uArch: Shader 0 finished CTA #2 (19215,0), 7 CTAs running
GPGPU-Sim uArch: core:  0, cta: 2 initialized @(19216,0)
GPGPU-Sim PTX: 9500000 instructions simulated : ctaid=(9,9,0) tid=(0,7,0)
GPGPU-Sim uArch: Shader 9 finished CTA #4 (19347,0), 7 CTAs running
GPGPU-Sim uArch: core:  9, cta: 4 initialized @(19348,0)
GPGPU-Sim uArch: Shader 7 finished CTA #2 (19385,0), 7 CTAs running
GPGPU-Sim uArch: core:  7, cta: 2 initialized @(19386,0)
GPGPU-Sim uArch: cycles simulated: 19500  inst.: 9026861 (ipc=462.9) sim_rate=475097 (inst/sec) elapsed = 0:0:00:19 / Fri Jan 16 05:35:14 2015
GPGPU-Sim uArch: Shader 12 finished CTA #1 (19550,0), 7 CTAs running
GPGPU-Sim uArch: core: 12, cta: 1 initialized @(19551,0)
GPGPU-Sim PTX: 9600000 instructions simulated : ctaid=(26,9,0) tid=(2,3,0)
GPGPU-Sim uArch: Shader 13 finished CTA #6 (19743,0), 7 CTAs running
GPGPU-Sim uArch: core: 13, cta: 6 initialized @(19744,0)
GPGPU-Sim PTX: 9700000 instructions simulated : ctaid=(26,8,0) tid=(7,7,0)
GPGPU-Sim PTX: 9800000 instructions simulated : ctaid=(5,9,0) tid=(1,1,0)
GPGPU-Sim uArch: Shader 13 finished CTA #3 (20303,0), 7 CTAs running
GPGPU-Sim uArch: core: 13, cta: 3 initialized @(20304,0)
GPGPU-Sim uArch: Shader 6 finished CTA #5 (20328,0), 7 CTAs running
GPGPU-Sim uArch: core:  6, cta: 5 initialized @(20329,0)
GPGPU-Sim PTX: 9900000 instructions simulated : ctaid=(19,9,0) tid=(2,3,0)
GPGPU-Sim uArch: Shader 14 finished CTA #0 (20418,0), 7 CTAs running
GPGPU-Sim uArch: core: 14, cta: 0 initialized @(20419,0)
GPGPU-Sim uArch: cycles simulated: 20500  inst.: 9367040 (ipc=456.9) sim_rate=468352 (inst/sec) elapsed = 0:0:00:20 / Fri Jan 16 05:35:15 2015
GPGPU-Sim PTX: 10000000 instructions simulated : ctaid=(3,9,0) tid=(5,5,0)
GPGPU-Sim uArch: Shader 7 finished CTA #0 (20782,0), 7 CTAs running
GPGPU-Sim uArch: core:  7, cta: 0 initialized @(20783,0)
GPGPU-Sim PTX: 10100000 instructions simulated : ctaid=(0,8,0) tid=(4,5,0)
GPGPU-Sim uArch: Shader 14 finished CTA #6 (21026,0), 7 CTAs running
GPGPU-Sim uArch: core: 14, cta: 6 initialized @(21027,0)
GPGPU-Sim uArch: Shader 4 finished CTA #7 (21037,0), 7 CTAs running
GPGPU-Sim uArch: core:  4, cta: 7 initialized @(21038,0)
GPGPU-Sim uArch: Shader 8 finished CTA #3 (21042,0), 7 CTAs running
GPGPU-Sim uArch: core:  8, cta: 3 initialized @(21043,0)
GPGPU-Sim uArch: Shader 7 finished CTA #6 (21115,0), 7 CTAs running
GPGPU-Sim uArch: core:  7, cta: 6 initialized @(21116,0)
GPGPU-Sim PTX: 10200000 instructions simulated : ctaid=(8,10,0) tid=(1,7,0)
GPGPU-Sim uArch: Shader 6 finished CTA #4 (21206,0), 7 CTAs running
GPGPU-Sim uArch: core:  6, cta: 4 initialized @(21207,0)
GPGPU-Sim uArch: Shader 11 finished CTA #4 (21210,0), 7 CTAs running
GPGPU-Sim uArch: core: 11, cta: 4 initialized @(21211,0)
GPGPU-Sim uArch: Shader 7 finished CTA #3 (21393,0), 7 CTAs running
GPGPU-Sim uArch: core:  7, cta: 3 initialized @(21394,0)
GPGPU-Sim PTX: 10300000 instructions simulated : ctaid=(10,10,0) tid=(6,0,0)
GPGPU-Sim uArch: cycles simulated: 21500  inst.: 9716688 (ipc=451.9) sim_rate=462699 (inst/sec) elapsed = 0:0:00:21 / Fri Jan 16 05:35:16 2015
GPGPU-Sim PTX: 10400000 instructions simulated : ctaid=(5,10,0) tid=(1,7,0)
GPGPU-Sim PTX: 10500000 instructions simulated : ctaid=(19,10,0) tid=(5,2,0)
GPGPU-Sim uArch: Shader 0 finished CTA #0 (22096,0), 7 CTAs running
GPGPU-Sim uArch: core:  0, cta: 0 initialized @(22097,0)
GPGPU-Sim uArch: Shader 10 finished CTA #7 (22136,0), 7 CTAs running
GPGPU-Sim uArch: core: 10, cta: 7 initialized @(22137,0)
GPGPU-Sim uArch: Shader 14 finished CTA #5 (22214,0), 7 CTAs running
GPGPU-Sim uArch: core: 14, cta: 5 initialized @(22215,0)
GPGPU-Sim uArch: Shader 8 finished CTA #4 (22222,0), 7 CTAs running
GPGPU-Sim uArch: core:  8, cta: 4 initialized @(22223,0)
GPGPU-Sim PTX: 10600000 instructions simulated : ctaid=(21,9,0) tid=(7,1,0)
GPGPU-Sim PTX: 10700000 instructions simulated : ctaid=(18,9,0) tid=(4,5,0)
GPGPU-Sim uArch: Shader 4 finished CTA #5 (22750,0), 7 CTAs running
GPGPU-Sim uArch: core:  4, cta: 5 initialized @(22751,0)
GPGPU-Sim uArch: Shader 14 finished CTA #3 (22770,0), 7 CTAs running
GPGPU-Sim uArch: core: 14, cta: 3 initialized @(22771,0)
GPGPU-Sim PTX: 10800000 instructions simulated : ctaid=(17,7,0) tid=(7,6,0)
GPGPU-Sim uArch: cycles simulated: 23000  inst.: 10250397 (ipc=445.7) sim_rate=465927 (inst/sec) elapsed = 0:0:00:22 / Fri Jan 16 05:35:17 2015
GPGPU-Sim PTX: 10900000 instructions simulated : ctaid=(28,9,0) tid=(1,5,0)
GPGPU-Sim uArch: Shader 12 finished CTA #4 (23110,0), 7 CTAs running
GPGPU-Sim uArch: core: 12, cta: 4 initialized @(23111,0)
GPGPU-Sim uArch: Shader 7 finished CTA #7 (23224,0), 7 CTAs running
GPGPU-Sim uArch: core:  7, cta: 7 initialized @(23225,0)
GPGPU-Sim uArch: Shader 8 finished CTA #7 (23260,0), 7 CTAs running
GPGPU-Sim uArch: core:  8, cta: 7 initialized @(23261,0)
GPGPU-Sim uArch: Shader 9 finished CTA #7 (23264,0), 7 CTAs running
GPGPU-Sim uArch: core:  9, cta: 7 initialized @(23265,0)
GPGPU-Sim PTX: 11000000 instructions simulated : ctaid=(28,9,0) tid=(7,1,0)
GPGPU-Sim uArch: Shader 3 finished CTA #4 (23413,0), 7 CTAs running
GPGPU-Sim uArch: core:  3, cta: 4 initialized @(23414,0)
GPGPU-Sim uArch: Shader 14 finished CTA #1 (23506,0), 7 CTAs running
GPGPU-Sim uArch: core: 14, cta: 1 initialized @(23507,0)
GPGPU-Sim uArch: Shader 11 finished CTA #0 (23536,0), 7 CTAs running
GPGPU-Sim uArch: core: 11, cta: 0 initialized @(23537,0)
GPGPU-Sim PTX: 11100000 instructions simulated : ctaid=(30,9,0) tid=(2,6,0)
GPGPU-Sim uArch: Shader 3 finished CTA #0 (23743,0), 7 CTAs running
GPGPU-Sim uArch: core:  3, cta: 0 initialized @(23744,0)
GPGPU-Sim uArch: Shader 5 finished CTA #3 (23771,0), 7 CTAs running
GPGPU-Sim uArch: core:  5, cta: 3 initialized @(23772,0)
GPGPU-Sim PTX: 11200000 instructions simulated : ctaid=(21,9,0) tid=(0,6,0)
GPGPU-Sim uArch: cycles simulated: 24000  inst.: 10612856 (ipc=442.2) sim_rate=461428 (inst/sec) elapsed = 0:0:00:23 / Fri Jan 16 05:35:18 2015
GPGPU-Sim uArch: Shader 4 finished CTA #6 (24007,0), 7 CTAs running
GPGPU-Sim uArch: core:  4, cta: 6 initialized @(24008,0)
GPGPU-Sim PTX: 11300000 instructions simulated : ctaid=(3,11,0) tid=(6,6,0)
GPGPU-Sim uArch: Shader 4 finished CTA #2 (24104,0), 7 CTAs running
GPGPU-Sim uArch: core:  4, cta: 2 initialized @(24105,0)
GPGPU-Sim PTX: 11400000 instructions simulated : ctaid=(7,10,0) tid=(0,7,0)
GPGPU-Sim uArch: Shader 2 finished CTA #3 (24585,0), 7 CTAs running
GPGPU-Sim uArch: core:  2, cta: 3 initialized @(24586,0)
GPGPU-Sim uArch: Shader 11 finished CTA #2 (24604,0), 7 CTAs running
GPGPU-Sim uArch: core: 11, cta: 2 initialized @(24605,0)
GPGPU-Sim PTX: 11500000 instructions simulated : ctaid=(11,10,0) tid=(4,2,0)
GPGPU-Sim uArch: Shader 14 finished CTA #4 (24729,0), 7 CTAs running
GPGPU-Sim uArch: core: 14, cta: 4 initialized @(24730,0)
GPGPU-Sim uArch: Shader 9 finished CTA #2 (24782,0), 7 CTAs running
GPGPU-Sim uArch: core:  9, cta: 2 initialized @(24783,0)
GPGPU-Sim PTX: 11600000 instructions simulated : ctaid=(7,11,0) tid=(7,4,0)
GPGPU-Sim uArch: Shader 12 finished CTA #0 (24906,0), 7 CTAs running
GPGPU-Sim uArch: core: 12, cta: 0 initialized @(24907,0)
GPGPU-Sim uArch: cycles simulated: 25000  inst.: 10971626 (ipc=438.9) sim_rate=457151 (inst/sec) elapsed = 0:0:00:24 / Fri Jan 16 05:35:19 2015
GPGPU-Sim uArch: Shader 7 finished CTA #2 (25095,0), 7 CTAs running
GPGPU-Sim uArch: core:  7, cta: 2 initialized @(25096,0)
GPGPU-Sim PTX: 11700000 instructions simulated : ctaid=(29,9,0) tid=(5,5,0)
GPGPU-Sim uArch: Shader 9 finished CTA #6 (25159,0), 7 CTAs running
GPGPU-Sim uArch: core:  9, cta: 6 initialized @(25160,0)
GPGPU-Sim uArch: Shader 11 finished CTA #1 (25276,0), 7 CTAs running
GPGPU-Sim uArch: core: 11, cta: 1 initialized @(25277,0)
GPGPU-Sim uArch: Shader 14 finished CTA #2 (25371,0), 7 CTAs running
GPGPU-Sim uArch: core: 14, cta: 2 initialized @(25372,0)
GPGPU-Sim PTX: 11800000 instructions simulated : ctaid=(23,10,0) tid=(0,4,0)
GPGPU-Sim PTX: 11900000 instructions simulated : ctaid=(1,9,0) tid=(6,4,0)
GPGPU-Sim uArch: Shader 1 finished CTA #2 (25662,0), 7 CTAs running
GPGPU-Sim uArch: core:  1, cta: 2 initialized @(25663,0)
GPGPU-Sim uArch: Shader 5 finished CTA #5 (25809,0), 7 CTAs running
GPGPU-Sim uArch: core:  5, cta: 5 initialized @(25810,0)
GPGPU-Sim PTX: 12000000 instructions simulated : ctaid=(14,10,0) tid=(2,3,0)
GPGPU-Sim uArch: Shader 11 finished CTA #0 (25954,0), 7 CTAs running
GPGPU-Sim uArch: core: 11, cta: 0 initialized @(25955,0)
GPGPU-Sim uArch: cycles simulated: 26000  inst.: 11330620 (ipc=435.8) sim_rate=453224 (inst/sec) elapsed = 0:0:00:25 / Fri Jan 16 05:35:20 2015
GPGPU-Sim PTX: 12100000 instructions simulated : ctaid=(25,10,0) tid=(2,7,0)
GPGPU-Sim uArch: Shader 5 finished CTA #0 (26190,0), 7 CTAs running
GPGPU-Sim uArch: core:  5, cta: 0 initialized @(26191,0)
GPGPU-Sim uArch: Shader 9 finished CTA #0 (26302,0), 7 CTAs running
GPGPU-Sim uArch: core:  9, cta: 0 initialized @(26303,0)
GPGPU-Sim PTX: 12200000 instructions simulated : ctaid=(22,10,0) tid=(0,7,0)
GPGPU-Sim uArch: Shader 0 finished CTA #5 (26562,0), 7 CTAs running
GPGPU-Sim uArch: core:  0, cta: 5 initialized @(26563,0)
GPGPU-Sim uArch: Shader 4 finished CTA #4 (26627,0), 7 CTAs running
GPGPU-Sim uArch: core:  4, cta: 4 initialized @(26628,0)
GPGPU-Sim PTX: 12300000 instructions simulated : ctaid=(6,8,0) tid=(3,4,0)
GPGPU-Sim uArch: Shader 6 finished CTA #1 (26774,0), 7 CTAs running
GPGPU-Sim uArch: core:  6, cta: 1 initialized @(26775,0)
GPGPU-Sim uArch: Shader 2 finished CTA #7 (26827,0), 7 CTAs running
GPGPU-Sim uArch: core:  2, cta: 7 initialized @(26828,0)
GPGPU-Sim uArch: Shader 0 finished CTA #4 (26919,0), 7 CTAs running
GPGPU-Sim uArch: core:  0, cta: 4 initialized @(26920,0)
GPGPU-Sim uArch: Shader 5 finished CTA #6 (26943,0), 7 CTAs running
GPGPU-Sim uArch: core:  5, cta: 6 initialized @(26944,0)
GPGPU-Sim PTX: 12400000 instructions simulated : ctaid=(17,10,0) tid=(2,0,0)
GPGPU-Sim PTX: 12500000 instructions simulated : ctaid=(13,10,0) tid=(3,1,0)
GPGPU-Sim uArch: cycles simulated: 27500  inst.: 11865408 (ipc=431.5) sim_rate=456361 (inst/sec) elapsed = 0:0:00:26 / Fri Jan 16 05:35:21 2015
GPGPU-Sim PTX: 12600000 instructions simulated : ctaid=(8,11,0) tid=(3,7,0)
GPGPU-Sim PTX: 12700000 instructions simulated : ctaid=(30,10,0) tid=(7,0,0)
GPGPU-Sim PTX: 12800000 instructions simulated : ctaid=(14,10,0) tid=(1,6,0)
GPGPU-Sim uArch: Shader 13 finished CTA #1 (28164,0), 7 CTAs running
GPGPU-Sim uArch: core: 13, cta: 1 initialized @(28165,0)
GPGPU-Sim uArch: Shader 6 finished CTA #0 (28286,0), 7 CTAs running
GPGPU-Sim uArch: core:  6, cta: 0 initialized @(28287,0)
GPGPU-Sim PTX: 12900000 instructions simulated : ctaid=(16,10,0) tid=(6,5,0)
GPGPU-Sim uArch: Shader 11 finished CTA #4 (28398,0), 7 CTAs running
GPGPU-Sim uArch: core: 11, cta: 4 initialized @(28399,0)
GPGPU-Sim uArch: cycles simulated: 28500  inst.: 12210287 (ipc=428.4) sim_rate=452232 (inst/sec) elapsed = 0:0:00:27 / Fri Jan 16 05:35:22 2015
GPGPU-Sim PTX: 13000000 instructions simulated : ctaid=(4,10,0) tid=(0,7,0)
GPGPU-Sim PTX: 13100000 instructions simulated : ctaid=(2,10,0) tid=(6,1,0)
GPGPU-Sim uArch: Shader 7 finished CTA #5 (28984,0), 7 CTAs running
GPGPU-Sim uArch: core:  7, cta: 5 initialized @(28985,0)
GPGPU-Sim uArch: Shader 7 finished CTA #3 (29027,0), 7 CTAs running
GPGPU-Sim uArch: core:  7, cta: 3 initialized @(29028,0)
GPGPU-Sim uArch: Shader 6 finished CTA #7 (29147,0), 7 CTAs running
GPGPU-Sim uArch: core:  6, cta: 7 initialized @(29148,0)
GPGPU-Sim PTX: 13200000 instructions simulated : ctaid=(20,11,0) tid=(2,6,0)
GPGPU-Sim uArch: Shader 13 finished CTA #0 (29206,0), 7 CTAs running
GPGPU-Sim uArch: core: 13, cta: 0 initialized @(29207,0)
GPGPU-Sim uArch: Shader 4 finished CTA #3 (29321,0), 7 CTAs running
GPGPU-Sim uArch: core:  4, cta: 3 initialized @(29322,0)
GPGPU-Sim uArch: Shader 3 finished CTA #4 (29387,0), 7 CTAs running
GPGPU-Sim uArch: core:  3, cta: 4 initialized @(29388,0)
GPGPU-Sim uArch: Shader 12 finished CTA #5 (29392,0), 7 CTAs running
GPGPU-Sim uArch: core: 12, cta: 5 initialized @(29393,0)
GPGPU-Sim PTX: 13300000 instructions simulated : ctaid=(24,11,0) tid=(2,2,0)
GPGPU-Sim uArch: Shader 13 finished CTA #7 (29496,0), 7 CTAs running
GPGPU-Sim uArch: core: 13, cta: 7 initialized @(29497,0)
GPGPU-Sim uArch: cycles simulated: 29500  inst.: 12538272 (ipc=425.0) sim_rate=447795 (inst/sec) elapsed = 0:0:00:28 / Fri Jan 16 05:35:23 2015
GPGPU-Sim uArch: Shader 1 finished CTA #5 (29509,0), 7 CTAs running
GPGPU-Sim uArch: core:  1, cta: 5 initialized @(29510,0)
GPGPU-Sim uArch: Shader 2 finished CTA #1 (29649,0), 7 CTAs running
GPGPU-Sim uArch: core:  2, cta: 1 initialized @(29650,0)
GPGPU-Sim PTX: 13400000 instructions simulated : ctaid=(13,10,0) tid=(7,3,0)
GPGPU-Sim PTX: 13500000 instructions simulated : ctaid=(16,9,0) tid=(4,3,0)
GPGPU-Sim PTX: 13600000 instructions simulated : ctaid=(1,12,0) tid=(0,2,0)
GPGPU-Sim uArch: Shader 11 finished CTA #7 (30307,0), 7 CTAs running
GPGPU-Sim uArch: core: 11, cta: 7 initialized @(30308,0)
GPGPU-Sim uArch: cycles simulated: 30500  inst.: 12874078 (ipc=422.1) sim_rate=443933 (inst/sec) elapsed = 0:0:00:29 / Fri Jan 16 05:35:24 2015
GPGPU-Sim PTX: 13700000 instructions simulated : ctaid=(16,10,0) tid=(7,0,0)
GPGPU-Sim uArch: Shader 8 finished CTA #5 (30678,0), 7 CTAs running
GPGPU-Sim uArch: core:  8, cta: 5 initialized @(30679,0)
GPGPU-Sim uArch: Shader 14 finished CTA #7 (30792,0), 7 CTAs running
GPGPU-Sim uArch: core: 14, cta: 7 initialized @(30793,0)
GPGPU-Sim uArch: Shader 0 finished CTA #0 (30801,0), 7 CTAs running
GPGPU-Sim uArch: core:  0, cta: 0 initialized @(30802,0)
GPGPU-Sim PTX: 13800000 instructions simulated : ctaid=(20,11,0) tid=(3,0,0)
GPGPU-Sim uArch: Shader 9 finished CTA #1 (30973,0), 7 CTAs running
GPGPU-Sim uArch: core:  9, cta: 1 initialized @(30974,0)
GPGPU-Sim uArch: Shader 0 finished CTA #3 (31153,0), 7 CTAs running
GPGPU-Sim uArch: core:  0, cta: 3 initialized @(31154,0)
GPGPU-Sim PTX: 13900000 instructions simulated : ctaid=(16,11,0) tid=(1,3,0)
GPGPU-Sim uArch: Shader 14 finished CTA #1 (31168,0), 7 CTAs running
GPGPU-Sim uArch: core: 14, cta: 1 initialized @(31169,0)
GPGPU-Sim uArch: Shader 7 finished CTA #0 (31230,0), 7 CTAs running
GPGPU-Sim uArch: core:  7, cta: 0 initialized @(31231,0)
GPGPU-Sim PTX: 14000000 instructions simulated : ctaid=(7,12,0) tid=(1,1,0)
GPGPU-Sim uArch: Shader 2 finished CTA #5 (31542,0), 7 CTAs running
GPGPU-Sim uArch: core:  2, cta: 5 initialized @(31543,0)
GPGPU-Sim PTX: 14100000 instructions simulated : ctaid=(13,11,0) tid=(2,7,0)
GPGPU-Sim uArch: Shader 3 finished CTA #2 (31859,0), 7 CTAs running
GPGPU-Sim uArch: core:  3, cta: 2 initialized @(31860,0)
GPGPU-Sim uArch: Shader 9 finished CTA #5 (31866,0), 7 CTAs running
GPGPU-Sim uArch: core:  9, cta: 5 initialized @(31867,0)
GPGPU-Sim uArch: Shader 6 finished CTA #6 (31913,0), 7 CTAs running
GPGPU-Sim uArch: core:  6, cta: 6 initialized @(31914,0)
GPGPU-Sim uArch: Shader 5 finished CTA #2 (31914,0), 7 CTAs running
GPGPU-Sim uArch: core:  5, cta: 2 initialized @(31915,0)
GPGPU-Sim uArch: cycles simulated: 32000  inst.: 13359900 (ipc=417.5) sim_rate=445330 (inst/sec) elapsed = 0:0:00:30 / Fri Jan 16 05:35:25 2015
GPGPU-Sim PTX: 14200000 instructions simulated : ctaid=(16,11,0) tid=(0,5,0)
GPGPU-Sim uArch: Shader 10 finished CTA #6 (32063,0), 7 CTAs running
GPGPU-Sim uArch: core: 10, cta: 6 initialized @(32064,0)
GPGPU-Sim uArch: Shader 11 finished CTA #6 (32269,0), 7 CTAs running
GPGPU-Sim uArch: core: 11, cta: 6 initialized @(32270,0)
GPGPU-Sim PTX: 14300000 instructions simulated : ctaid=(25,10,0) tid=(4,4,0)
GPGPU-Sim uArch: Shader 8 finished CTA #0 (32460,0), 7 CTAs running
GPGPU-Sim uArch: core:  8, cta: 0 initialized @(32461,0)
GPGPU-Sim PTX: 14400000 instructions simulated : ctaid=(5,12,0) tid=(2,2,0)
GPGPU-Sim uArch: Shader 1 finished CTA #4 (32679,0), 7 CTAs running
GPGPU-Sim uArch: core:  1, cta: 4 initialized @(32680,0)
GPGPU-Sim uArch: Shader 5 finished CTA #0 (32853,0), 7 CTAs running
GPGPU-Sim uArch: core:  5, cta: 0 initialized @(32854,0)
GPGPU-Sim PTX: 14500000 instructions simulated : ctaid=(8,12,0) tid=(6,5,0)
GPGPU-Sim uArch: Shader 0 finished CTA #5 (32928,0), 7 CTAs running
GPGPU-Sim uArch: core:  0, cta: 5 initialized @(32929,0)
GPGPU-Sim uArch: cycles simulated: 33000  inst.: 13682861 (ipc=414.6) sim_rate=441382 (inst/sec) elapsed = 0:0:00:31 / Fri Jan 16 05:35:26 2015
GPGPU-Sim uArch: Shader 9 finished CTA #3 (33021,0), 7 CTAs running
GPGPU-Sim uArch: core:  9, cta: 3 initialized @(33022,0)
GPGPU-Sim uArch: Shader 7 finished CTA #7 (33068,0), 7 CTAs running
GPGPU-Sim uArch: core:  7, cta: 7 initialized @(33069,0)
GPGPU-Sim uArch: Shader 11 finished CTA #3 (33188,0), 7 CTAs running
GPGPU-Sim uArch: core: 11, cta: 3 initialized @(33189,0)
GPGPU-Sim PTX: 14600000 instructions simulated : ctaid=(25,10,0) tid=(4,2,0)
GPGPU-Sim uArch: Shader 0 finished CTA #1 (33305,0), 7 CTAs running
GPGPU-Sim uArch: core:  0, cta: 1 initialized @(33306,0)
GPGPU-Sim uArch: Shader 1 finished CTA #6 (33315,0), 7 CTAs running
GPGPU-Sim uArch: core:  1, cta: 6 initialized @(33316,0)
GPGPU-Sim PTX: 14700000 instructions simulated : ctaid=(10,12,0) tid=(2,5,0)
GPGPU-Sim uArch: Shader 2 finished CTA #6 (33487,0), 7 CTAs running
GPGPU-Sim uArch: core:  2, cta: 6 initialized @(33488,0)
GPGPU-Sim uArch: Shader 9 finished CTA #0 (33518,0), 7 CTAs running
GPGPU-Sim uArch: core:  9, cta: 0 initialized @(33519,0)
GPGPU-Sim uArch: Shader 4 finished CTA #4 (33544,0), 7 CTAs running
GPGPU-Sim uArch: core:  4, cta: 4 initialized @(33545,0)
GPGPU-Sim uArch: Shader 14 finished CTA #4 (33630,0), 7 CTAs running
GPGPU-Sim uArch: core: 14, cta: 4 initialized @(33631,0)
GPGPU-Sim uArch: Shader 3 finished CTA #7 (33640,0), 7 CTAs running
GPGPU-Sim uArch: core:  3, cta: 7 initialized @(33641,0)
GPGPU-Sim PTX: 14800000 instructions simulated : ctaid=(8,12,0) tid=(6,3,0)
GPGPU-Sim uArch: Shader 3 finished CTA #0 (33816,0), 7 CTAs running
GPGPU-Sim uArch: core:  3, cta: 0 initialized @(33817,0)
GPGPU-Sim uArch: cycles simulated: 34000  inst.: 14021372 (ipc=412.4) sim_rate=438167 (inst/sec) elapsed = 0:0:00:32 / Fri Jan 16 05:35:27 2015
[...]
gpgpu_stall_shd_mem[t_mem][data_port_stall] = 0
gpgpu_stall_shd_mem[s_mem][bk_conf] = 0
gpgpu_stall_shd_mem[gl_mem][bk_conf] = 0
gpgpu_stall_shd_mem[gl_mem][coal_stall] = 6144
gpgpu_stall_shd_mem[gl_mem][data_port_stall] = 0
gpgpu_stall_shd_mem[g_mem_ld][mshr_rc] = 0
gpgpu_stall_shd_mem[g_mem_ld][icnt_rc] = 0
gpgpu_stall_shd_mem[g_mem_ld][wb_icnt_rc] = 0
gpgpu_stall_shd_mem[g_mem_ld][wb_rsrv_fail] = 0
gpgpu_stall_shd_mem[g_mem_st][mshr_rc] = 0
gpgpu_stall_shd_mem[g_mem_st][icnt_rc] = 0
gpgpu_stall_shd_mem[g_mem_st][wb_icnt_rc] = 0
gpgpu_stall_shd_mem[g_mem_st][wb_rsrv_fail] = 0
gpgpu_stall_shd_mem[l_mem_ld][mshr_rc] = 0
gpgpu_stall_shd_mem[l_mem_ld][icnt_rc] = 0
gpgpu_stall_shd_mem[l_mem_ld][wb_icnt_rc] = 0
gpgpu_stall_shd_mem[l_mem_ld][wb_rsrv_fail] = 0
gpgpu_stall_shd_mem[l_mem_st][mshr_rc] = 0
gpgpu_stall_shd_mem[l_mem_st][icnt_rc] = 0
gpgpu_stall_shd_mem[l_mem_ld][wb_icnt_rc] = 0
gpgpu_stall_shd_mem[l_mem_ld][wb_rsrv_fail] = 0
gpu_reg_bank_conflict_stalls = 0
Warp Occupancy Distribution:
Stall:271448	W0_Idle:105714	W0_Scoreboard:591806	W1:628310	W2:332830	W3:220652	W4:145546	W5:108122	W6:95050	W7:77178	W8:59418	W9:54752	W10:45056	W11:39760	W12:35760	W13:32224	W14:30304	W15:27072	W16:28560	W17:22704	W18:20160	W19:19600	W20:19760	W21:17280	W22:17152	W23:16752	W24:17552	W25:15248	W26:14112	W27:13792	W28:15632	W29:17696	W30:19120	W31:22080	W32:1287648
traffic_breakdown_coretomem[CONST_ACC_R] = 120 {8:15,}
traffic_breakdown_coretomem[GLOBAL_ACC_W] = 327680 {40:8192,}
traffic_breakdown_coretomem[INST_ACC_R] = 480 {8:60,}
traffic_breakdown_memtocore[CONST_ACC_R] = 1080 {72:15,}
traffic_breakdown_memtocore[GLOBAL_ACC_W] = 65536 {8:8192,}
traffic_breakdown_memtocore[INST_ACC_R] = 8160 {136:60,}
maxmrqlatency = 36 
maxdqlatency = 0 
maxmflatency = 366 
averagemflatency = 152 
max_icnt2mem_latency = 44 
max_icnt2sh_latency = 155931 
mrq_lat_table:1089 	4 	30 	23 	33 	6 	0 	0 	0 	0 	0 	0 	0 	0 	0 	0 	0 	0 	0 	0 	0 	0 	0 	0 	0 	0 	0 	0 	0 	0 	0 	0 	
dq_lat_table:0 	0 	0 	0 	0 	0 	0 	0 	0 	0 	0 	0 	0 	0 	0 	0 	0 	0 	0 	0 	0 	0 	0 	0 	0 	0 	0 	0 	0 	0 	0 	0 	
mf_lat_table:0 	0 	0 	0 	0 	0 	0 	8119 	88 	0 	0 	0 	0 	0 	0 	0 	0 	0 	0 	0 	0 	0 	0 	0 	0 	0 	0 	0 	0 	0 	0 	0 	
icnt2mem_lat_table:0 	0 	0 	6097 	2147 	23 	0 	0 	0 	0 	0 	0 	0 	0 	0 	0 	0 	0 	0 	0 	0 	0 	0 	0 	
icnt2sh_lat_table:0 	0 	0 	2 	13 	0 	0 	0 	0 	0 	0 	347 	557 	672 	900 	1704 	3216 	796 	0 	0 	0 	0 	0 	0 	
mf_lat_pw_table:0 	0 	0 	0 	0 	0 	0 	297 	2 	0 	0 	0 	0 	0 	0 	0 	0 	0 	0 	0 	0 	0 	0 	0 	0 	0 	0 	0 	0 	0 	0 	0 	
maximum concurrent accesses to same row:
dram[0]:         1         0         0         0         0         0         0         0         0         0         0         0         0         0         0         0 
dram[1]:         0         0         0         0         0         0         0         0         0         0         0         0         0         0         0         0 
dram[2]:         0         0         0         0         0         0         0         0         0         0         0         0         0         0         0         0 
dram[3]:         0         0         0         0         0         0         0         0         0         0         0         0         0         0         0         0 
dram[4]:         0         0         0         0         0         0         0         0         0         0         0         0         0         0         0         0 
dram[5]:         0         0         0         0         0         0         0         0         0         0         0         0         0         0         0         0 
maximum service time to same row:
dram[0]:       338         0         0         0      2332      2338     14766     15588         0         0         0         0         0         0         0         0 
dram[1]:      1279         0         0         0      2329      2335     14763     15585         0         0         0         0         0         0         0         0 
dram[2]:         0         0         0         0      2326      2341     14760     19232         0         0         0         0         0         0         0         0 
dram[3]:         0         0         0         0      2324      2338     14757     19229         0         0         0         0         0         0         0         0 
dram[4]:         0         0         0         0      2344      2335     15594     19225         0         0         0         0         0         0         0         0 
dram[5]:         0         0         0         0      2341      2332     15591     19222         0         0         0         0         0         0         0         0 
average row accesses per activate:
dram[0]:  1.000000      -nan      -nan      -nan 31.000000 31.000000 65.000000 65.000000      -nan      -nan      -nan      -nan      -nan      -nan      -nan      -nan 
dram[1]:  2.000000      -nan      -nan      -nan 31.000000 31.000000 65.000000 65.000000      -nan      -nan      -nan      -nan      -nan      -nan      -nan      -nan 
dram[2]:      -nan      -nan      -nan      -nan 31.000000 37.000000 65.000000 66.000000      -nan      -nan      -nan      -nan      -nan      -nan      -nan      -nan 
dram[3]:      -nan      -nan      -nan      -nan 31.000000 37.000000 65.000000 66.000000      -nan      -nan      -nan      -nan      -nan      -nan      -nan      -nan 
dram[4]:      -nan      -nan      -nan      -nan 31.000000 37.000000 65.000000 66.000000      -nan      -nan      -nan      -nan      -nan      -nan      -nan      -nan 
dram[5]:      -nan      -nan      -nan      -nan 31.000000 37.000000 65.000000 66.000000      -nan      -nan      -nan      -nan      -nan      -nan      -nan      -nan 
average row locality = 1185/28 = 42.321430
number of total memory accesses made:
dram[0]:         0         0         0         0         0         0         0         0         0         0         0         0         0         0         0         0 
dram[1]:         0         0         0         0         0         0         0         0         0         0         0         0         0         0         0         0 
dram[2]:         0         0         0         0         0         0         0         0         0         0         0         0         0         0         0         0 
dram[3]:         0         0         0         0         0         0         0         0         0         0         0         0         0         0         0         0 
dram[4]:         0         0         0         0         0         0         0         0         0         0         0         0         0         0         0         0 
dram[5]:         0         0         0         0         0         0         0         0         0         0         0         0         0         0         0         0 
total accesses: 0
min_bank_accesses = 0!
min_chip_accesses = 0!
number of total read accesses:
dram[0]:         3         0         0         0        10        10        32        32         0         0         0         0         0         0         0         0 
dram[1]:         2         0         0         0        10        10        32        32         0         0         0         0         0         0         0         0 
dram[2]:         0         0         0         0        10        12        32        32         0         0         0         0         0         0         0         0 
dram[3]:         0         0         0         0        10        12        32        32         0         0         0         0         0         0         0         0 
dram[4]:         0         0         0         0        10        12        32        32         0         0         0         0         0         0         0         0 
dram[5]:         0         0         0         0        10        12        32        32         0         0         0         0         0         0         0         0 
total reads: 517
min_bank_accesses = 0!
chip skew: 87/86 = 1.01
number of total write accesses:
dram[0]:         0         0         0         0        21        21        33        33         0         0         0         0         0         0         0         0 
dram[1]:         0         0         0         0        21        21        33        33         0         0         0         0         0         0         0         0 
dram[2]:         0         0         0         0        21        25        33        34         0         0         0         0         0         0         0         0 
dram[3]:         0         0         0         0        21        25        33        34         0         0         0         0         0         0         0         0 
dram[4]:         0         0         0         0        21        25        33        34         0         0         0         0         0         0         0         0 
dram[5]:         0         0         0         0        21        25        33        34         0         0         0         0         0         0         0         0 
total reads: 668
min_bank_accesses = 0!
chip skew: 113/108 = 1.05
average mf latency per bank:
dram[0]:       1300    none      none      none         834       813      1204      1173    none      none      none      none      none      none      none      none  
dram[1]:          0    none      none      none         823       802      1189      1157    none      none      none      none      none      none      none      none  
dram[2]:     none      none      none      none         811       844      1173      1187    none      none      none      none      none      none      none      none  
dram[3]:     none      none      none      none         801       834      1157      1172    none      none      none      none      none      none      none      none  
dram[4]:     none      none      none      none         835       820      1204      1156    none      none      none      none      none      none      none      none  
dram[5]:     none      none      none      none         824       810      1188      1141    none      none      none      none      none      none      none      none  
maximum mf latency per bank:
dram[0]:        278         0         0         0       301       311       257       253         0         0         0         0         0         0         0         0
dram[1]:          0         0         0         0       299       309       255       251         0         0         0         0         0         0         0         0
dram[2]:          0         0         0         0       287       366       253       265         0         0         0         0         0         0         0         0
dram[3]:          0         0         0         0       285       364       251       263         0         0         0         0         0         0         0         0
dram[4]:          0         0         0         0       321       351       258       254         0         0         0         0         0         0         0         0
dram[5]:          0         0         0         0       319       349       255       252         0         0         0         0         0         0         0         0
Memory Partition 0: 
Cache L2_bank_000:
MSHR contents

Cache L2_bank_001:
MSHR contents

In Dram Latency Queue (total = 0): 
DRAM[0]: 16 bks, busW=4 BL=8 CL=12, tRRD=2 tCCD=6, tRCD=12 tRAS=28 tRP=12 tRC=40
n_cmd=205829 n_nop=205538 n_act=7 n_pre=2 n_req=195 n_rd=174 n_write=108 bw_util=0.00274
n_activity=2546 dram_eff=0.2215
bk0: 6a 205757i bk1: 0a 205827i bk2: 0a 205830i bk3: 0a 205831i bk4: 20a 205612i bk5: 20a 205605i bk6: 64a 205355i bk7: 64a 205340i bk8: 0a 205827i bk9: 0a 205828i bk10: 0a 205828i bk11: 0a 205829i bk12: 0a 205829i bk13: 0a 205829i bk14: 0a 205829i bk15: 0a 205829i 
dram_util_bins: 0 0 0 0 0 0 0 0 0 0
dram_eff_bins: 0 0 0 0 0 0 0 0 0 0
mrqq: max=5 avg=0.00139922
Memory Partition 1: 
Cache L2_bank_002:
MSHR contents

Cache L2_bank_003:
MSHR contents

In Dram Latency Queue (total = 0): 
DRAM[1]: 16 bks, busW=4 BL=8 CL=12, tRRD=2 tCCD=6, tRCD=12 tRAS=28 tRP=12 tRC=40
n_cmd=205829 n_nop=205544 n_act=5 n_pre=0 n_req=194 n_rd=172 n_write=108 bw_util=0.002721
n_activity=2457 dram_eff=0.2279
bk0: 4a 205809i bk1: 0a 205829i bk2: 0a 205829i bk3: 0a 205831i bk4: 20a 205611i bk5: 20a 205605i bk6: 64a 205357i bk7: 64a 205339i bk8: 0a 205827i bk9: 0a 205828i bk10: 0a 205828i bk11: 0a 205829i bk12: 0a 205829i bk13: 0a 205829i bk14: 0a 205829i bk15: 0a 205829i 
dram_util_bins: 0 0 0 0 0 0 0 0 0 0
dram_eff_bins: 0 0 0 0 0 0 0 0 0 0
mrqq: max=5 avg=0.00138464
Memory Partition 2: 
Cache L2_bank_004:
MSHR contents

Cache L2_bank_005:
MSHR contents

In Dram Latency Queue (total = 0): 
DRAM[2]: 16 bks, busW=4 BL=8 CL=12, tRRD=2 tCCD=6, tRCD=12 tRAS=28 tRP=12 tRC=40
n_cmd=205829 n_nop=205540 n_act=4 n_pre=0 n_req=199 n_rd=172 n_write=113 bw_util=0.002769
n_activity=2474 dram_eff=0.2304
bk0: 0a 205829i bk1: 0a 205830i bk2: 0a 205830i bk3: 0a 205831i bk4: 20a 205624i bk5: 24a 205579i bk6: 64a 205357i bk7: 64a 205345i bk8: 0a 205827i bk9: 0a 205828i bk10: 0a 205828i bk11: 0a 205828i bk12: 0a 205828i bk13: 0a 205829i bk14: 0a 205829i bk15: 0a 205829i 
dram_util_bins: 0 0 0 0 0 0 0 0 0 0
dram_eff_bins: 0 0 0 0 0 0 0 0 0 0
mrqq: max=6 avg=0.0015061
Memory Partition 3: 
Cache L2_bank_006:
MSHR contents

Cache L2_bank_007:
MSHR contents

In Dram Latency Queue (total = 0): 
DRAM[3]: 16 bks, busW=4 BL=8 CL=12, tRRD=2 tCCD=6, tRCD=12 tRAS=28 tRP=12 tRC=40
n_cmd=205829 n_nop=205540 n_act=4 n_pre=0 n_req=199 n_rd=172 n_write=113 bw_util=0.002769
n_activity=2474 dram_eff=0.2304
bk0: 0a 205829i bk1: 0a 205830i bk2: 0a 205830i bk3: 0a 205831i bk4: 20a 205624i bk5: 24a 205578i bk6: 64a 205356i bk7: 64a 205343i bk8: 0a 205827i bk9: 0a 205828i bk10: 0a 205828i bk11: 0a 205828i bk12: 0a 205828i bk13: 0a 205829i bk14: 0a 205829i bk15: 0a 205829i 
dram_util_bins: 0 0 0 0 0 0 0 0 0 0
dram_eff_bins: 0 0 0 0 0 0 0 0 0 0
mrqq: max=6 avg=0.00156441
Memory Partition 4: 
Cache L2_bank_008:
MSHR contents

Cache L2_bank_009:
MSHR contents

In Dram Latency Queue (total = 0): 
DRAM[4]: 16 bks, busW=4 BL=8 CL=12, tRRD=2 tCCD=6, tRCD=12 tRAS=28 tRP=12 tRC=40
n_cmd=205829 n_nop=205540 n_act=4 n_pre=0 n_req=199 n_rd=172 n_write=113 bw_util=0.002769
n_activity=2484 dram_eff=0.2295
bk0: 0a 205829i bk1: 0a 205830i bk2: 0a 205831i bk3: 0a 205831i bk4: 20a 205598i bk5: 24a 205595i bk6: 64a 205350i bk7: 64a 205351i bk8: 0a 205827i bk9: 0a 205827i bk10: 0a 205827i bk11: 0a 205829i bk12: 0a 205829i bk13: 0a 205829i bk14: 0a 205829i bk15: 0a 205829i 
dram_util_bins: 0 0 0 0 0 0 0 0 0 0
dram_eff_bins: 0 0 0 0 0 0 0 0 0 0
mrqq: max=5 avg=0.00141379
Memory Partition 5: 
Cache L2_bank_010:
MSHR contents

Cache L2_bank_011:
MSHR contents

In Dram Latency Queue (total = 0): 
DRAM[5]: 16 bks, busW=4 BL=8 CL=12, tRRD=2 tCCD=6, tRCD=12 tRAS=28 tRP=12 tRC=40
n_cmd=205829 n_nop=205540 n_act=4 n_pre=0 n_req=199 n_rd=172 n_write=113 bw_util=0.002769
n_activity=2484 dram_eff=0.2295
bk0: 0a 205829i bk1: 0a 205830i bk2: 0a 205831i bk3: 0a 205831i bk4: 20a 205598i bk5: 24a 205595i bk6: 64a 205345i bk7: 64a 205351i bk8: 0a 205827i bk9: 0a 205827i bk10: 0a 205827i bk11: 0a 205829i bk12: 0a 205829i bk13: 0a 205829i bk14: 0a 205829i bk15: 0a 205829i 
dram_util_bins: 0 0 0 0 0 0 0 0 0 0
dram_eff_bins: 0 0 0 0 0 0 0 0 0 0
mrqq: max=5 avg=0.00141379

========= L2 cache stats =========
L2_cache_bank[0]: Access = 717, Miss = 45, Miss_rate = 0.063, Pending_hits = 21, Reservation_fails = 398
L2_cache_bank[1]: Access = 672, Miss = 42, Miss_rate = 0.062, Pending_hits = 12, Reservation_fails = 15
L2_cache_bank[2]: Access = 702, Miss = 44, Miss_rate = 0.063, Pending_hits = 18, Reservation_fails = 166
L2_cache_bank[3]: Access = 672, Miss = 42, Miss_rate = 0.062, Pending_hits = 12, Reservation_fails = 15
L2_cache_bank[4]: Access = 672, Miss = 42, Miss_rate = 0.062, Pending_hits = 12, Reservation_fails = 45
L2_cache_bank[5]: Access = 704, Miss = 44, Miss_rate = 0.062, Pending_hits = 15, Reservation_fails = 100
L2_cache_bank[6]: Access = 672, Miss = 42, Miss_rate = 0.062, Pending_hits = 12, Reservation_fails = 46
L2_cache_bank[7]: Access = 704, Miss = 44, Miss_rate = 0.062, Pending_hits = 15, Reservation_fails = 100
L2_cache_bank[8]: Access = 672, Miss = 42, Miss_rate = 0.062, Pending_hits = 12, Reservation_fails = 15
L2_cache_bank[9]: Access = 704, Miss = 44, Miss_rate = 0.062, Pending_hits = 15, Reservation_fails = 88
L2_cache_bank[10]: Access = 672, Miss = 42, Miss_rate = 0.062, Pending_hits = 12, Reservation_fails = 15
L2_cache_bank[11]: Access = 704, Miss = 44, Miss_rate = 0.062, Pending_hits = 15, Reservation_fails = 88
L2_total_cache_accesses = 8267
L2_total_cache_misses = 517
L2_total_cache_miss_rate = 0.0625
L2_total_cache_pending_hits = 171
L2_total_cache_reservation_fails = 1091
L2_total_cache_breakdown:
	L2_cache_stats_breakdown[CONST_ACC_R][HIT] = 11
	L2_cache_stats_breakdown[CONST_ACC_R][HIT_RESERVED] = 3
	L2_cache_stats_breakdown[CONST_ACC_R][MISS] = 1
	L2_cache_stats_breakdown[CONST_ACC_R][RESERVATION_FAIL] = 109
	L2_cache_stats_breakdown[GLOBAL_ACC_W][HIT] = 7524
	L2_cache_stats_breakdown[GLOBAL_ACC_W][HIT_RESERVED] = 156
	L2_cache_stats_breakdown[GLOBAL_ACC_W][MISS] = 512
	L2_cache_stats_breakdown[GLOBAL_ACC_W][RESERVATION_FAIL] = 639
	L2_cache_stats_breakdown[INST_ACC_R][HIT] = 44
	L2_cache_stats_breakdown[INST_ACC_R][HIT_RESERVED] = 12
	L2_cache_stats_breakdown[INST_ACC_R][MISS] = 4
	L2_cache_stats_breakdown[INST_ACC_R][RESERVATION_FAIL] = 343
L2_cache_data_port_util = 0.004
L2_cache_fill_port_util = 0.001

icnt_total_pkts_mem_to_simt=8537
icnt_total_pkts_simt_to_mem=16459
LD_mem_lat_dist  0 0 0 0 0 0 0 0 0 0 0 0 0 0 0 0 0 0 0 0 0 0 0 0 0 0 0
ST_mem_lat_dist  0 0 0 0 0 0 0 0 0 0 0 0 0 0 0 0 0 0 0 0 0 0 0 0 0 0 0
----------------------------Interconnect-DETAILS--------------------------------
Class 0:
Packet latency average = 8.14135
	minimum = 6
	maximum = 34
Network latency average = 7.3419
	minimum = 6
	maximum = 34
Slowest packet = 14
Flit latency average = 7.1083
	minimum = 6
	maximum = 34
Slowest flit = 14
Fragmentation average = 0
	minimum = 0
	maximum = 0
Injected packet rate average = 0.00392716
	minimum = 0.00295642 (at node 10)
	maximum = 0.00459816 (at node 15)
Accepted packet rate average = 0.00392716
	minimum = 0.00295642 (at node 10)
	maximum = 0.00459816 (at node 15)
Injected flit rate average = 0.00593706
	minimum = 0.00430957 (at node 16)
	maximum = 0.00813816 (at node 14)
Accepted flit rate average= 0.00593706
	minimum = 0.00307185 (at node 10)
	maximum = 0.00902958 (at node 20)
Injected packet length average = 1.51179
Accepted packet length average = 1.51179
Total in-flight flits = 0 (0 measured)
====== Overall Traffic Statistics ======
====== Traffic class 0 ======
Packet latency average = 8.14135 (1 samples)
	minimum = 6 (1 samples)
	maximum = 34 (1 samples)
Network latency average = 7.3419 (1 samples)
	minimum = 6 (1 samples)
	maximum = 34 (1 samples)
Flit latency average = 7.1083 (1 samples)
	minimum = 6 (1 samples)
	maximum = 34 (1 samples)
Fragmentation average = 0 (1 samples)
	minimum = 0 (1 samples)
	maximum = 0 (1 samples)
Injected packet rate average = 0.00392716 (1 samples)
	minimum = 0.00295642 (1 samples)
	maximum = 0.00459816 (1 samples)
Accepted packet rate average = 0.00392716 (1 samples)
	minimum = 0.00295642 (1 samples)
	maximum = 0.00459816 (1 samples)
Injected flit rate average = 0.00593706 (1 samples)
	minimum = 0.00430957 (1 samples)
	maximum = 0.00813816 (1 samples)
Accepted flit rate average = 0.00593706 (1 samples)
	minimum = 0.00307185 (1 samples)
	maximum = 0.00902958 (1 samples)
Injected packet size average = 1.51179 (1 samples)
Accepted packet size average = 1.51179 (1 samples)
Hops average = 1 (1 samples)
----------------------------END-of-Interconnect-DETAILS-------------------------


gpgpu_simulation_time = 0 days, 0 hrs, 2 min, 13 sec (133 sec)
gpgpu_simulation_rate = 394432 (inst/sec)
gpgpu_simulation_rate = 1172 (cycle/sec)
